<additional xmlns:xsi="http://www.w3.org/2001/XMLSchema-instance" xsi:noNamespaceSchemaLocation="http://sumo.dlr.de/xsd/additional_file.xsd">
    
    
    
    
    
    
    
    
    
    
    
    
    
    
    
    
    
    
    
    
    
    
    
    
    
    
    
    
    
    
    
    
    
    
    
    
    
    
    
    
    
    
    
    
    
    
    
    
    
    
    
    
    
    
    
    
    
    
    
    
    
    
    
    
    
    
    
    
    
    
    
    
    
    
    
    
    
    
    
    
    
    
    
    
    <vTypeDistribution id="L2-AV-">
        <vType id="L2-AV-0" vClass="custom1" carFollowModel="ACC" color="white" tau="0.600" decel="3.245" accel="1.003" emergencyDecel="9.000" lcAssertive="1.213" actionStepLength="0.100">
            <param key="has.toc.device" value="true"/>
            <param key="device.toc.manualType" value="L0-HDV-"/>
            <param key="device.toc.automatedType" value="L2-AV-"/>
            <param key="device.toc.reponseTime" value="1.500"/>
            <param key="device.toc.initialAwareness" value="0.672"/>
            <param key="device.toc.recoveryRate" value="0.102"/>
            <param key="device.toc.tauCACCtoACC" value="1.613"/>
            <param key="device.toc.mrmDecel" value="3.000"/>
            <param key="device.toc.useColorScheme" value="true"/>
            <param key="device.toc.dynamicToCThreshold" value="8.416"/>
            <param key="has.ssm.device" value="true"/>
            <param key="device.ssm.measures" value="TTC DRAC PET"/>
            <param key="device.ssm.thresholds" value="0.75 6.0 2.0"/>
            <param key="device.ssm.range" value="30.000"/>
            <param key="device.ssm.extratime" value="5.000"/>
            <param key="device.ssm.file" value="Output-Files\SSM-L2-AV.xml"/>
            <param key="device.ssm.trajectories" value="false"/>
            <param key="device.ssm.geo" value="false"/>
        </vType>
        <vType id="L2-AV-1" vClass="custom1" carFollowModel="ACC" color="white" tau="0.600" decel="2.675" accel="1.035" emergencyDecel="9.000" lcAssertive="1.224" actionStepLength="0.100">
            <param key="has.toc.device" value="true"/>
            <param key="device.toc.manualType" value="L0-HDV-"/>
            <param key="device.toc.automatedType" value="L2-AV-"/>
            <param key="device.toc.reponseTime" value="1.500"/>
            <param key="device.toc.initialAwareness" value="0.994"/>
            <param key="device.toc.recoveryRate" value="0.237"/>
            <param key="device.toc.tauCACCtoACC" value="1.369"/>
            <param key="device.toc.mrmDecel" value="3.000"/>
            <param key="device.toc.useColorScheme" value="true"/>
            <param key="device.toc.dynamicToCThreshold" value="8.530"/>
            <param key="has.ssm.device" value="true"/>
            <param key="device.ssm.measures" value="TTC DRAC PET"/>
            <param key="device.ssm.thresholds" value="0.75 6.0 2.0"/>
            <param key="device.ssm.range" value="30.000"/>
            <param key="device.ssm.extratime" value="5.000"/>
            <param key="device.ssm.file" value="Output-Files\SSM-L2-AV.xml"/>
            <param key="device.ssm.trajectories" value="false"/>
            <param key="device.ssm.geo" value="false"/>
        </vType>
        <vType id="L2-AV-2" vClass="custom1" carFollowModel="ACC" color="white" tau="0.600" decel="2.052" accel="1.866" emergencyDecel="9.000" lcAssertive="1.136" actionStepLength="0.100">
            <param key="has.toc.device" value="true"/>
            <param key="device.toc.manualType" value="L0-HDV-"/>
            <param key="device.toc.automatedType" value="L2-AV-"/>
            <param key="device.toc.reponseTime" value="1.500"/>
            <param key="device.toc.initialAwareness" value="0.830"/>
            <param key="device.toc.recoveryRate" value="0.107"/>
            <param key="device.toc.tauCACCtoACC" value="1.562"/>
            <param key="device.toc.mrmDecel" value="3.000"/>
            <param key="device.toc.useColorScheme" value="true"/>
            <param key="device.toc.dynamicToCThreshold" value="8.784"/>
            <param key="has.ssm.device" value="true"/>
            <param key="device.ssm.measures" value="TTC DRAC PET"/>
            <param key="device.ssm.thresholds" value="0.75 6.0 2.0"/>
            <param key="device.ssm.range" value="30.000"/>
            <param key="device.ssm.extratime" value="5.000"/>
            <param key="device.ssm.file" value="Output-Files\SSM-L2-AV.xml"/>
            <param key="device.ssm.trajectories" value="false"/>
            <param key="device.ssm.geo" value="false"/>
        </vType>
        <vType id="L2-AV-3" vClass="custom1" carFollowModel="ACC" color="white" tau="0.600" decel="3.942" accel="1.941" emergencyDecel="9.000" lcAssertive="1.216" actionStepLength="0.100">
            <param key="has.toc.device" value="true"/>
            <param key="device.toc.manualType" value="L0-HDV-"/>
            <param key="device.toc.automatedType" value="L2-AV-"/>
            <param key="device.toc.reponseTime" value="1.500"/>
            <param key="device.toc.initialAwareness" value="0.593"/>
            <param key="device.toc.recoveryRate" value="0.214"/>
            <param key="device.toc.tauCACCtoACC" value="1.784"/>
            <param key="device.toc.mrmDecel" value="3.000"/>
            <param key="device.toc.useColorScheme" value="true"/>
            <param key="device.toc.dynamicToCThreshold" value="8.889"/>
            <param key="has.ssm.device" value="true"/>
            <param key="device.ssm.measures" value="TTC DRAC PET"/>
            <param key="device.ssm.thresholds" value="0.75 6.0 2.0"/>
            <param key="device.ssm.range" value="30.000"/>
            <param key="device.ssm.extratime" value="5.000"/>
            <param key="device.ssm.file" value="Output-Files\SSM-L2-AV.xml"/>
            <param key="device.ssm.trajectories" value="false"/>
            <param key="device.ssm.geo" value="false"/>
        </vType>
        <vType id="L2-AV-4" vClass="custom1" carFollowModel="ACC" color="white" tau="0.600" decel="3.867" accel="1.501" emergencyDecel="9.000" lcAssertive="1.102" actionStepLength="0.100">
            <param key="has.toc.device" value="true"/>
            <param key="device.toc.manualType" value="L0-HDV-"/>
            <param key="device.toc.automatedType" value="L2-AV-"/>
            <param key="device.toc.reponseTime" value="1.500"/>
            <param key="device.toc.initialAwareness" value="0.744"/>
            <param key="device.toc.recoveryRate" value="0.298"/>
            <param key="device.toc.tauCACCtoACC" value="1.704"/>
            <param key="device.toc.mrmDecel" value="3.000"/>
            <param key="device.toc.useColorScheme" value="true"/>
            <param key="device.toc.dynamicToCThreshold" value="8.825"/>
            <param key="has.ssm.device" value="true"/>
            <param key="device.ssm.measures" value="TTC DRAC PET"/>
            <param key="device.ssm.thresholds" value="0.75 6.0 2.0"/>
            <param key="device.ssm.range" value="30.000"/>
            <param key="device.ssm.extratime" value="5.000"/>
            <param key="device.ssm.file" value="Output-Files\SSM-L2-AV.xml"/>
            <param key="device.ssm.trajectories" value="false"/>
            <param key="device.ssm.geo" value="false"/>
        </vType>
        <vType id="L2-AV-5" vClass="custom1" carFollowModel="ACC" color="white" tau="0.600" decel="3.523" accel="1.406" emergencyDecel="9.000" lcAssertive="1.142" actionStepLength="0.100">
            <param key="has.toc.device" value="true"/>
            <param key="device.toc.manualType" value="L0-HDV-"/>
            <param key="device.toc.automatedType" value="L2-AV-"/>
            <param key="device.toc.reponseTime" value="1.500"/>
            <param key="device.toc.initialAwareness" value="0.750"/>
            <param key="device.toc.recoveryRate" value="0.126"/>
            <param key="device.toc.tauCACCtoACC" value="1.456"/>
            <param key="device.toc.mrmDecel" value="3.000"/>
            <param key="device.toc.useColorScheme" value="true"/>
            <param key="device.toc.dynamicToCThreshold" value="8.581"/>
            <param key="has.ssm.device" value="true"/>
            <param key="device.ssm.measures" value="TTC DRAC PET"/>
            <param key="device.ssm.thresholds" value="0.75 6.0 2.0"/>
            <param key="device.ssm.range" value="30.000"/>
            <param key="device.ssm.extratime" value="5.000"/>
            <param key="device.ssm.file" value="Output-Files\SSM-L2-AV.xml"/>
            <param key="device.ssm.trajectories" value="false"/>
            <param key="device.ssm.geo" value="false"/>
        </vType>
        <vType id="L2-AV-6" vClass="custom1" carFollowModel="ACC" color="white" tau="0.600" decel="2.325" accel="0.906" emergencyDecel="9.000" lcAssertive="1.122" actionStepLength="0.100">
            <param key="has.toc.device" value="true"/>
            <param key="device.toc.manualType" value="L0-HDV-"/>
            <param key="device.toc.automatedType" value="L2-AV-"/>
            <param key="device.toc.reponseTime" value="1.500"/>
            <param key="device.toc.initialAwareness" value="1.048"/>
            <param key="device.toc.recoveryRate" value="0.178"/>
            <param key="device.toc.tauCACCtoACC" value="1.630"/>
            <param key="device.toc.mrmDecel" value="3.000"/>
            <param key="device.toc.useColorScheme" value="true"/>
            <param key="device.toc.dynamicToCThreshold" value="8.392"/>
            <param key="has.ssm.device" value="true"/>
            <param key="device.ssm.measures" value="TTC DRAC PET"/>
            <param key="device.ssm.thresholds" value="0.75 6.0 2.0"/>
            <param key="device.ssm.range" value="30.000"/>
            <param key="device.ssm.extratime" value="5.000"/>
            <param key="device.ssm.file" value="Output-Files\SSM-L2-AV.xml"/>
            <param key="device.ssm.trajectories" value="false"/>
            <param key="device.ssm.geo" value="false"/>
        </vType>
        <vType id="L2-AV-7" vClass="custom1" carFollowModel="ACC" color="white" tau="0.600" decel="2.754" accel="1.247" emergencyDecel="9.000" lcAssertive="1.191" actionStepLength="0.100">
            <param key="has.toc.device" value="true"/>
            <param key="device.toc.manualType" value="L0-HDV-"/>
            <param key="device.toc.automatedType" value="L2-AV-"/>
            <param key="device.toc.reponseTime" value="1.500"/>
            <param key="device.toc.initialAwareness" value="0.507"/>
            <param key="device.toc.recoveryRate" value="0.181"/>
            <param key="device.toc.tauCACCtoACC" value="1.359"/>
            <param key="device.toc.mrmDecel" value="3.000"/>
            <param key="device.toc.useColorScheme" value="true"/>
            <param key="device.toc.dynamicToCThreshold" value="9.045"/>
            <param key="has.ssm.device" value="true"/>
            <param key="device.ssm.measures" value="TTC DRAC PET"/>
            <param key="device.ssm.thresholds" value="0.75 6.0 2.0"/>
            <param key="device.ssm.range" value="30.000"/>
            <param key="device.ssm.extratime" value="5.000"/>
            <param key="device.ssm.file" value="Output-Files\SSM-L2-AV.xml"/>
            <param key="device.ssm.trajectories" value="false"/>
            <param key="device.ssm.geo" value="false"/>
        </vType>
        <vType id="L2-AV-8" vClass="custom1" carFollowModel="ACC" color="white" tau="0.600" decel="3.718" accel="1.469" emergencyDecel="9.000" lcAssertive="1.141" actionStepLength="0.100">
            <param key="has.toc.device" value="true"/>
            <param key="device.toc.manualType" value="L0-HDV-"/>
            <param key="device.toc.automatedType" value="L2-AV-"/>
            <param key="device.toc.reponseTime" value="1.500"/>
            <param key="device.toc.initialAwareness" value="0.327"/>
            <param key="device.toc.recoveryRate" value="0.187"/>
            <param key="device.toc.tauCACCtoACC" value="1.568"/>
            <param key="device.toc.mrmDecel" value="3.000"/>
            <param key="device.toc.useColorScheme" value="true"/>
            <param key="device.toc.dynamicToCThreshold" value="8.579"/>
            <param key="has.ssm.device" value="true"/>
            <param key="device.ssm.measures" value="TTC DRAC PET"/>
            <param key="device.ssm.thresholds" value="0.75 6.0 2.0"/>
            <param key="device.ssm.range" value="30.000"/>
            <param key="device.ssm.extratime" value="5.000"/>
            <param key="device.ssm.file" value="Output-Files\SSM-L2-AV.xml"/>
            <param key="device.ssm.trajectories" value="false"/>
            <param key="device.ssm.geo" value="false"/>
        </vType>
        <vType id="L2-AV-9" vClass="custom1" carFollowModel="ACC" color="white" tau="0.600" decel="3.287" accel="1.533" emergencyDecel="9.000" lcAssertive="1.106" actionStepLength="0.100">
            <param key="has.toc.device" value="true"/>
            <param key="device.toc.manualType" value="L0-HDV-"/>
            <param key="device.toc.automatedType" value="L2-AV-"/>
            <param key="device.toc.reponseTime" value="1.500"/>
            <param key="device.toc.initialAwareness" value="0.800"/>
            <param key="device.toc.recoveryRate" value="0.148"/>
            <param key="device.toc.tauCACCtoACC" value="1.678"/>
            <param key="device.toc.mrmDecel" value="3.000"/>
            <param key="device.toc.useColorScheme" value="true"/>
            <param key="device.toc.dynamicToCThreshold" value="9.213"/>
            <param key="has.ssm.device" value="true"/>
            <param key="device.ssm.measures" value="TTC DRAC PET"/>
            <param key="device.ssm.thresholds" value="0.75 6.0 2.0"/>
            <param key="device.ssm.range" value="30.000"/>
            <param key="device.ssm.extratime" value="5.000"/>
            <param key="device.ssm.file" value="Output-Files\SSM-L2-AV.xml"/>
            <param key="device.ssm.trajectories" value="false"/>
            <param key="device.ssm.geo" value="false"/>
        </vType>
        <vType id="L2-AV-10" vClass="custom1" carFollowModel="ACC" color="white" tau="0.600" decel="2.667" accel="0.758" emergencyDecel="9.000" lcAssertive="1.171" actionStepLength="0.100">
            <param key="has.toc.device" value="true"/>
            <param key="device.toc.manualType" value="L0-HDV-"/>
            <param key="device.toc.automatedType" value="L2-AV-"/>
            <param key="device.toc.reponseTime" value="1.500"/>
            <param key="device.toc.initialAwareness" value="0.446"/>
            <param key="device.toc.recoveryRate" value="0.065"/>
            <param key="device.toc.tauCACCtoACC" value="1.314"/>
            <param key="device.toc.mrmDecel" value="3.000"/>
            <param key="device.toc.useColorScheme" value="true"/>
            <param key="device.toc.dynamicToCThreshold" value="8.867"/>
            <param key="has.ssm.device" value="true"/>
            <param key="device.ssm.measures" value="TTC DRAC PET"/>
            <param key="device.ssm.thresholds" value="0.75 6.0 2.0"/>
            <param key="device.ssm.range" value="30.000"/>
            <param key="device.ssm.extratime" value="5.000"/>
            <param key="device.ssm.file" value="Output-Files\SSM-L2-AV.xml"/>
            <param key="device.ssm.trajectories" value="false"/>
            <param key="device.ssm.geo" value="false"/>
        </vType>
        <vType id="L2-AV-11" vClass="custom1" carFollowModel="ACC" color="white" tau="0.600" decel="3.776" accel="1.969" emergencyDecel="9.000" lcAssertive="1.166" actionStepLength="0.100">
            <param key="has.toc.device" value="true"/>
            <param key="device.toc.manualType" value="L0-HDV-"/>
            <param key="device.toc.automatedType" value="L2-AV-"/>
            <param key="device.toc.reponseTime" value="1.500"/>
            <param key="device.toc.initialAwareness" value="0.658"/>
            <param key="device.toc.recoveryRate" value="0.182"/>
            <param key="device.toc.tauCACCtoACC" value="1.564"/>
            <param key="device.toc.mrmDecel" value="3.000"/>
            <param key="device.toc.useColorScheme" value="true"/>
            <param key="device.toc.dynamicToCThreshold" value="9.462"/>
            <param key="has.ssm.device" value="true"/>
            <param key="device.ssm.measures" value="TTC DRAC PET"/>
            <param key="device.ssm.thresholds" value="0.75 6.0 2.0"/>
            <param key="device.ssm.range" value="30.000"/>
            <param key="device.ssm.extratime" value="5.000"/>
            <param key="device.ssm.file" value="Output-Files\SSM-L2-AV.xml"/>
            <param key="device.ssm.trajectories" value="false"/>
            <param key="device.ssm.geo" value="false"/>
        </vType>
        <vType id="L2-AV-12" vClass="custom1" carFollowModel="ACC" color="white" tau="0.600" decel="2.875" accel="0.808" emergencyDecel="9.000" lcAssertive="1.193" actionStepLength="0.100">
            <param key="has.toc.device" value="true"/>
            <param key="device.toc.manualType" value="L0-HDV-"/>
            <param key="device.toc.automatedType" value="L2-AV-"/>
            <param key="device.toc.reponseTime" value="1.500"/>
            <param key="device.toc.initialAwareness" value="0.604"/>
            <param key="device.toc.recoveryRate" value="0.158"/>
            <param key="device.toc.tauCACCtoACC" value="1.645"/>
            <param key="device.toc.mrmDecel" value="3.000"/>
            <param key="device.toc.useColorScheme" value="true"/>
            <param key="device.toc.dynamicToCThreshold" value="9.276"/>
            <param key="has.ssm.device" value="true"/>
            <param key="device.ssm.measures" value="TTC DRAC PET"/>
            <param key="device.ssm.thresholds" value="0.75 6.0 2.0"/>
            <param key="device.ssm.range" value="30.000"/>
            <param key="device.ssm.extratime" value="5.000"/>
            <param key="device.ssm.file" value="Output-Files\SSM-L2-AV.xml"/>
            <param key="device.ssm.trajectories" value="false"/>
            <param key="device.ssm.geo" value="false"/>
        </vType>
        <vType id="L2-AV-13" vClass="custom1" carFollowModel="ACC" color="white" tau="0.600" decel="2.902" accel="1.904" emergencyDecel="9.000" lcAssertive="1.204" actionStepLength="0.100">
            <param key="has.toc.device" value="true"/>
            <param key="device.toc.manualType" value="L0-HDV-"/>
            <param key="device.toc.automatedType" value="L2-AV-"/>
            <param key="device.toc.reponseTime" value="1.500"/>
            <param key="device.toc.initialAwareness" value="0.462"/>
            <param key="device.toc.recoveryRate" value="0.257"/>
            <param key="device.toc.tauCACCtoACC" value="1.575"/>
            <param key="device.toc.mrmDecel" value="3.000"/>
            <param key="device.toc.useColorScheme" value="true"/>
            <param key="device.toc.dynamicToCThreshold" value="8.767"/>
            <param key="has.ssm.device" value="true"/>
            <param key="device.ssm.measures" value="TTC DRAC PET"/>
            <param key="device.ssm.thresholds" value="0.75 6.0 2.0"/>
            <param key="device.ssm.range" value="30.000"/>
            <param key="device.ssm.extratime" value="5.000"/>
            <param key="device.ssm.file" value="Output-Files\SSM-L2-AV.xml"/>
            <param key="device.ssm.trajectories" value="false"/>
            <param key="device.ssm.geo" value="false"/>
        </vType>
        <vType id="L2-AV-14" vClass="custom1" carFollowModel="ACC" color="white" tau="0.600" decel="3.235" accel="1.250" emergencyDecel="9.000" lcAssertive="1.171" actionStepLength="0.100">
            <param key="has.toc.device" value="true"/>
            <param key="device.toc.manualType" value="L0-HDV-"/>
            <param key="device.toc.automatedType" value="L2-AV-"/>
            <param key="device.toc.reponseTime" value="1.500"/>
            <param key="device.toc.initialAwareness" value="0.280"/>
            <param key="device.toc.recoveryRate" value="0.254"/>
            <param key="device.toc.tauCACCtoACC" value="1.389"/>
            <param key="device.toc.mrmDecel" value="3.000"/>
            <param key="device.toc.useColorScheme" value="true"/>
            <param key="device.toc.dynamicToCThreshold" value="8.881"/>
            <param key="has.ssm.device" value="true"/>
            <param key="device.ssm.measures" value="TTC DRAC PET"/>
            <param key="device.ssm.thresholds" value="0.75 6.0 2.0"/>
            <param key="device.ssm.range" value="30.000"/>
            <param key="device.ssm.extratime" value="5.000"/>
            <param key="device.ssm.file" value="Output-Files\SSM-L2-AV.xml"/>
            <param key="device.ssm.trajectories" value="false"/>
            <param key="device.ssm.geo" value="false"/>
        </vType>
        <vType id="L2-AV-15" vClass="custom1" carFollowModel="ACC" color="white" tau="0.600" decel="2.245" accel="1.214" emergencyDecel="9.000" lcAssertive="1.175" actionStepLength="0.100">
            <param key="has.toc.device" value="true"/>
            <param key="device.toc.manualType" value="L0-HDV-"/>
            <param key="device.toc.automatedType" value="L2-AV-"/>
            <param key="device.toc.reponseTime" value="1.500"/>
            <param key="device.toc.initialAwareness" value="0.675"/>
            <param key="device.toc.recoveryRate" value="0.153"/>
            <param key="device.toc.tauCACCtoACC" value="1.622"/>
            <param key="device.toc.mrmDecel" value="3.000"/>
            <param key="device.toc.useColorScheme" value="true"/>
            <param key="device.toc.dynamicToCThreshold" value="8.265"/>
            <param key="has.ssm.device" value="true"/>
            <param key="device.ssm.measures" value="TTC DRAC PET"/>
            <param key="device.ssm.thresholds" value="0.75 6.0 2.0"/>
            <param key="device.ssm.range" value="30.000"/>
            <param key="device.ssm.extratime" value="5.000"/>
            <param key="device.ssm.file" value="Output-Files\SSM-L2-AV.xml"/>
            <param key="device.ssm.trajectories" value="false"/>
            <param key="device.ssm.geo" value="false"/>
        </vType>
        <vType id="L2-AV-16" vClass="custom1" carFollowModel="ACC" color="white" tau="0.600" decel="3.343" accel="1.882" emergencyDecel="9.000" lcAssertive="1.108" actionStepLength="0.100">
            <param key="has.toc.device" value="true"/>
            <param key="device.toc.manualType" value="L0-HDV-"/>
            <param key="device.toc.automatedType" value="L2-AV-"/>
            <param key="device.toc.reponseTime" value="1.500"/>
            <param key="device.toc.initialAwareness" value="0.621"/>
            <param key="device.toc.recoveryRate" value="0.027"/>
            <param key="device.toc.tauCACCtoACC" value="1.497"/>
            <param key="device.toc.mrmDecel" value="3.000"/>
            <param key="device.toc.useColorScheme" value="true"/>
            <param key="device.toc.dynamicToCThreshold" value="9.936"/>
            <param key="has.ssm.device" value="true"/>
            <param key="device.ssm.measures" value="TTC DRAC PET"/>
            <param key="device.ssm.thresholds" value="0.75 6.0 2.0"/>
            <param key="device.ssm.range" value="30.000"/>
            <param key="device.ssm.extratime" value="5.000"/>
            <param key="device.ssm.file" value="Output-Files\SSM-L2-AV.xml"/>
            <param key="device.ssm.trajectories" value="false"/>
            <param key="device.ssm.geo" value="false"/>
        </vType>
        <vType id="L2-AV-17" vClass="custom1" carFollowModel="ACC" color="white" tau="0.600" decel="3.032" accel="1.124" emergencyDecel="9.000" lcAssertive="1.237" actionStepLength="0.100">
            <param key="has.toc.device" value="true"/>
            <param key="device.toc.manualType" value="L0-HDV-"/>
            <param key="device.toc.automatedType" value="L2-AV-"/>
            <param key="device.toc.reponseTime" value="1.500"/>
            <param key="device.toc.initialAwareness" value="0.852"/>
            <param key="device.toc.recoveryRate" value="0.325"/>
            <param key="device.toc.tauCACCtoACC" value="1.488"/>
            <param key="device.toc.mrmDecel" value="3.000"/>
            <param key="device.toc.useColorScheme" value="true"/>
            <param key="device.toc.dynamicToCThreshold" value="8.402"/>
            <param key="has.ssm.device" value="true"/>
            <param key="device.ssm.measures" value="TTC DRAC PET"/>
            <param key="device.ssm.thresholds" value="0.75 6.0 2.0"/>
            <param key="device.ssm.range" value="30.000"/>
            <param key="device.ssm.extratime" value="5.000"/>
            <param key="device.ssm.file" value="Output-Files\SSM-L2-AV.xml"/>
            <param key="device.ssm.trajectories" value="false"/>
            <param key="device.ssm.geo" value="false"/>
        </vType>
        <vType id="L2-AV-18" vClass="custom1" carFollowModel="ACC" color="white" tau="0.600" decel="3.953" accel="1.800" emergencyDecel="9.000" lcAssertive="1.121" actionStepLength="0.100">
            <param key="has.toc.device" value="true"/>
            <param key="device.toc.manualType" value="L0-HDV-"/>
            <param key="device.toc.automatedType" value="L2-AV-"/>
            <param key="device.toc.reponseTime" value="1.500"/>
            <param key="device.toc.initialAwareness" value="0.716"/>
            <param key="device.toc.recoveryRate" value="0.049"/>
            <param key="device.toc.tauCACCtoACC" value="1.576"/>
            <param key="device.toc.mrmDecel" value="3.000"/>
            <param key="device.toc.useColorScheme" value="true"/>
            <param key="device.toc.dynamicToCThreshold" value="8.827"/>
            <param key="has.ssm.device" value="true"/>
            <param key="device.ssm.measures" value="TTC DRAC PET"/>
            <param key="device.ssm.thresholds" value="0.75 6.0 2.0"/>
            <param key="device.ssm.range" value="30.000"/>
            <param key="device.ssm.extratime" value="5.000"/>
            <param key="device.ssm.file" value="Output-Files\SSM-L2-AV.xml"/>
            <param key="device.ssm.trajectories" value="false"/>
            <param key="device.ssm.geo" value="false"/>
        </vType>
        <vType id="L2-AV-19" vClass="custom1" carFollowModel="ACC" color="white" tau="0.600" decel="2.818" accel="1.974" emergencyDecel="9.000" lcAssertive="1.122" actionStepLength="0.100">
            <param key="has.toc.device" value="true"/>
            <param key="device.toc.manualType" value="L0-HDV-"/>
            <param key="device.toc.automatedType" value="L2-AV-"/>
            <param key="device.toc.reponseTime" value="1.500"/>
            <param key="device.toc.initialAwareness" value="0.740"/>
            <param key="device.toc.recoveryRate" value="0.139"/>
            <param key="device.toc.tauCACCtoACC" value="1.477"/>
            <param key="device.toc.mrmDecel" value="3.000"/>
            <param key="device.toc.useColorScheme" value="true"/>
            <param key="device.toc.dynamicToCThreshold" value="8.562"/>
            <param key="has.ssm.device" value="true"/>
            <param key="device.ssm.measures" value="TTC DRAC PET"/>
            <param key="device.ssm.thresholds" value="0.75 6.0 2.0"/>
            <param key="device.ssm.range" value="30.000"/>
            <param key="device.ssm.extratime" value="5.000"/>
            <param key="device.ssm.file" value="Output-Files\SSM-L2-AV.xml"/>
            <param key="device.ssm.trajectories" value="false"/>
            <param key="device.ssm.geo" value="false"/>
        </vType>
        <vType id="L2-AV-20" vClass="custom1" carFollowModel="ACC" color="white" tau="0.600" decel="2.803" accel="1.436" emergencyDecel="9.000" lcAssertive="1.161" actionStepLength="0.100">
            <param key="has.toc.device" value="true"/>
            <param key="device.toc.manualType" value="L0-HDV-"/>
            <param key="device.toc.automatedType" value="L2-AV-"/>
            <param key="device.toc.reponseTime" value="1.500"/>
            <param key="device.toc.initialAwareness" value="0.617"/>
            <param key="device.toc.recoveryRate" value="0.084"/>
            <param key="device.toc.tauCACCtoACC" value="1.251"/>
            <param key="device.toc.mrmDecel" value="3.000"/>
            <param key="device.toc.useColorScheme" value="true"/>
            <param key="device.toc.dynamicToCThreshold" value="8.633"/>
            <param key="has.ssm.device" value="true"/>
            <param key="device.ssm.measures" value="TTC DRAC PET"/>
            <param key="device.ssm.thresholds" value="0.75 6.0 2.0"/>
            <param key="device.ssm.range" value="30.000"/>
            <param key="device.ssm.extratime" value="5.000"/>
            <param key="device.ssm.file" value="Output-Files\SSM-L2-AV.xml"/>
            <param key="device.ssm.trajectories" value="false"/>
            <param key="device.ssm.geo" value="false"/>
        </vType>
        <vType id="L2-AV-21" vClass="custom1" carFollowModel="ACC" color="white" tau="0.600" decel="3.722" accel="1.037" emergencyDecel="9.000" lcAssertive="1.209" actionStepLength="0.100">
            <param key="has.toc.device" value="true"/>
            <param key="device.toc.manualType" value="L0-HDV-"/>
            <param key="device.toc.automatedType" value="L2-AV-"/>
            <param key="device.toc.reponseTime" value="1.500"/>
            <param key="device.toc.initialAwareness" value="0.912"/>
            <param key="device.toc.recoveryRate" value="0.006"/>
            <param key="device.toc.tauCACCtoACC" value="1.528"/>