<additional xmlns:xsi="http://www.w3.org/2001/XMLSchema-instance" xsi:noNamespaceSchemaLocation="http://sumo.dlr.de/xsd/additional_file.xsd">
    
    
    
    
    
    
    
    
    
    
    
    
    
    
    
    
    
    
    
    
    
    
    
    
    
    
    
    
    
    
    
    
    
    
    
    
    
    
    
    
    
    
    
    
    
    
    
    
    
    
    
    
    
    
    
    
    
    
    
    
    
    
    
    
    
    
    <vTypeDistribution id="L4-AV-">
        <vType id="L4-AV-0" vClass="custom1" carFollowModel="ACC" color="orange" tau="0.600" decel="3.245" accel="1.003" emergencyDecel="9.000" lcAssertive="0.875" actionStepLength="0.100">
            <param key="has.toc.device" value="true"/>
            <param key="device.toc.manualType" value="L0-HDV-"/>
            <param key="device.toc.automatedType" value="L4-AV-"/>
            <param key="device.toc.reponseTime" value="3.724"/>
            <param key="device.toc.initialAwareness" value="0.405"/>
            <param key="device.toc.recoveryRate" value="0.357"/>
            <param key="device.toc.tauCACCtoACC" value="1.266"/>
            <param key="device.toc.ogNewTimeHeadway" value="1.600"/>
            <param key="device.toc.ogChangeRate" value="0.800"/>
            <param key="device.toc.mrmDecel" value="3.000"/>
            <param key="device.toc.useColorScheme" value="true"/>
            <param key="device.toc.dynamicToCThreshold" value="9.869"/>
            <param key="has.ssm.device" value="true"/>
            <param key="device.ssm.measures" value="TTC DRAC PET"/>
            <param key="device.ssm.thresholds" value="0.75 6.0 2.0"/>
            <param key="device.ssm.range" value="30.000"/>
            <param key="device.ssm.extratime" value="5.000"/>
            <param key="device.ssm.file" value="Output-Files\SSM-L4-AV.xml"/>
            <param key="device.ssm.trajectories" value="false"/>
            <param key="device.ssm.geo" value="false"/>
        </vType>
        <vType id="L4-AV-1" vClass="custom1" carFollowModel="ACC" color="orange" tau="0.600" decel="2.675" accel="1.035" emergencyDecel="9.000" lcAssertive="0.880" actionStepLength="0.100">
            <param key="has.toc.device" value="true"/>
            <param key="device.toc.manualType" value="L0-HDV-"/>
            <param key="device.toc.automatedType" value="L4-AV-"/>
            <param key="device.toc.reponseTime" value="6.936"/>
            <param key="device.toc.initialAwareness" value="0.674"/>
            <param key="device.toc.recoveryRate" value="0.234"/>
            <param key="device.toc.tauCACCtoACC" value="1.312"/>
            <param key="device.toc.ogNewTimeHeadway" value="1.600"/>
            <param key="device.toc.ogChangeRate" value="0.800"/>
            <param key="device.toc.mrmDecel" value="3.000"/>
            <param key="device.toc.useColorScheme" value="true"/>
            <param key="device.toc.dynamicToCThreshold" value="8.526"/>
            <param key="has.ssm.device" value="true"/>
            <param key="device.ssm.measures" value="TTC DRAC PET"/>
            <param key="device.ssm.thresholds" value="0.75 6.0 2.0"/>
            <param key="device.ssm.range" value="30.000"/>
            <param key="device.ssm.extratime" value="5.000"/>
            <param key="device.ssm.file" value="Output-Files\SSM-L4-AV.xml"/>
            <param key="device.ssm.trajectories" value="false"/>
            <param key="device.ssm.geo" value="false"/>
        </vType>
        <vType id="L4-AV-2" vClass="custom1" carFollowModel="ACC" color="orange" tau="0.600" decel="3.366" accel="1.218" emergencyDecel="9.000" lcAssertive="0.863" actionStepLength="0.100">
            <param key="has.toc.device" value="true"/>
            <param key="device.toc.manualType" value="L0-HDV-"/>
            <param key="device.toc.automatedType" value="L4-AV-"/>
            <param key="device.toc.reponseTime" value="2.139"/>
            <param key="device.toc.initialAwareness" value="0.662"/>
            <param key="device.toc.recoveryRate" value="0.257"/>
            <param key="device.toc.tauCACCtoACC" value="1.688"/>
            <param key="device.toc.ogNewTimeHeadway" value="1.600"/>
            <param key="device.toc.ogChangeRate" value="0.800"/>
            <param key="device.toc.mrmDecel" value="3.000"/>
            <param key="device.toc.useColorScheme" value="true"/>
            <param key="device.toc.dynamicToCThreshold" value="9.221"/>
            <param key="has.ssm.device" value="true"/>
            <param key="device.ssm.measures" value="TTC DRAC PET"/>
            <param key="device.ssm.thresholds" value="0.75 6.0 2.0"/>
            <param key="device.ssm.range" value="30.000"/>
            <param key="device.ssm.extratime" value="5.000"/>
            <param key="device.ssm.file" value="Output-Files\SSM-L4-AV.xml"/>
            <param key="device.ssm.trajectories" value="false"/>
            <param key="device.ssm.geo" value="false"/>
        </vType>
        <vType id="L4-AV-3" vClass="custom1" carFollowModel="ACC" color="orange" tau="0.600" decel="2.465" accel="1.643" emergencyDecel="9.000" lcAssertive="0.878" actionStepLength="0.100">
            <param key="has.toc.device" value="true"/>
            <param key="device.toc.manualType" value="L0-HDV-"/>
            <param key="device.toc.automatedType" value="L4-AV-"/>
            <param key="device.toc.reponseTime" value="3.558"/>
            <param key="device.toc.initialAwareness" value="0.241"/>
            <param key="device.toc.recoveryRate" value="0.387"/>
            <param key="device.toc.tauCACCtoACC" value="1.258"/>
            <param key="device.toc.ogNewTimeHeadway" value="1.600"/>
            <param key="device.toc.ogChangeRate" value="0.800"/>
            <param key="device.toc.mrmDecel" value="3.000"/>
            <param key="device.toc.useColorScheme" value="true"/>
            <param key="device.toc.dynamicToCThreshold" value="9.337"/>
            <param key="has.ssm.device" value="true"/>
            <param key="device.ssm.measures" value="TTC DRAC PET"/>
            <param key="device.ssm.thresholds" value="0.75 6.0 2.0"/>
            <param key="device.ssm.range" value="30.000"/>
            <param key="device.ssm.extratime" value="5.000"/>
            <param key="device.ssm.file" value="Output-Files\SSM-L4-AV.xml"/>
            <param key="device.ssm.trajectories" value="false"/>
            <param key="device.ssm.geo" value="false"/>
        </vType>
        <vType id="L4-AV-4" vClass="custom1" carFollowModel="ACC" color="orange" tau="0.600" decel="3.875" accel="1.501" emergencyDecel="9.000" lcAssertive="0.831" actionStepLength="0.100">
            <param key="has.toc.device" value="true"/>
            <param key="device.toc.manualType" value="L0-HDV-"/>
            <param key="device.toc.automatedType" value="L4-AV-"/>
            <param key="device.toc.reponseTime" value="4.441"/>
            <param key="device.toc.initialAwareness" value="0.796"/>
            <param key="device.toc.recoveryRate" value="0.402"/>
            <param key="device.toc.tauCACCtoACC" value="1.430"/>
            <param key="device.toc.ogNewTimeHeadway" value="1.600"/>
            <param key="device.toc.ogChangeRate" value="0.800"/>
            <param key="device.toc.mrmDecel" value="3.000"/>
            <param key="device.toc.useColorScheme" value="true"/>
            <param key="device.toc.dynamicToCThreshold" value="8.309"/>
            <param key="has.ssm.device" value="true"/>
            <param key="device.ssm.measures" value="TTC DRAC PET"/>
            <param key="device.ssm.thresholds" value="0.75 6.0 2.0"/>
            <param key="device.ssm.range" value="30.000"/>
            <param key="device.ssm.extratime" value="5.000"/>
            <param key="device.ssm.file" value="Output-Files\SSM-L4-AV.xml"/>
            <param key="device.ssm.trajectories" value="false"/>
            <param key="device.ssm.geo" value="false"/>
        </vType>
        <vType id="L4-AV-5" vClass="custom1" carFollowModel="ACC" color="orange" tau="0.600" decel="3.523" accel="1.406" emergencyDecel="9.000" lcAssertive="0.847" actionStepLength="0.100">
            <param key="has.toc.device" value="true"/>
            <param key="device.toc.manualType" value="L0-HDV-"/>
            <param key="device.toc.automatedType" value="L4-AV-"/>
            <param key="device.toc.reponseTime" value="4.499"/>
            <param key="device.toc.initialAwareness" value="0.451"/>
            <param key="device.toc.recoveryRate" value="0.278"/>
            <param key="device.toc.tauCACCtoACC" value="1.332"/>
            <param key="device.toc.ogNewTimeHeadway" value="1.600"/>
            <param key="device.toc.ogChangeRate" value="0.800"/>
            <param key="device.toc.mrmDecel" value="3.000"/>
            <param key="device.toc.useColorScheme" value="true"/>
            <param key="device.toc.dynamicToCThreshold" value="8.663"/>
            <param key="has.ssm.device" value="true"/>
            <param key="device.ssm.measures" value="TTC DRAC PET"/>
            <param key="device.ssm.thresholds" value="0.75 6.0 2.0"/>
            <param key="device.ssm.range" value="30.000"/>
            <param key="device.ssm.extratime" value="5.000"/>
            <param key="device.ssm.file" value="Output-Files\SSM-L4-AV.xml"/>
            <param key="device.ssm.trajectories" value="false"/>
            <param key="device.ssm.geo" value="false"/>
        </vType>
        <vType id="L4-AV-6" vClass="custom1" carFollowModel="ACC" color="orange" tau="0.600" decel="2.406" accel="0.935" emergencyDecel="9.000" lcAssertive="0.885" actionStepLength="0.100">
            <param key="has.toc.device" value="true"/>
            <param key="device.toc.manualType" value="L0-HDV-"/>
            <param key="device.toc.automatedType" value="L4-AV-"/>
            <param key="device.toc.reponseTime" value="3.565"/>
            <param key="device.toc.initialAwareness" value="0.730"/>
            <param key="device.toc.recoveryRate" value="0.178"/>
            <param key="device.toc.tauCACCtoACC" value="1.451"/>
            <param key="device.toc.ogNewTimeHeadway" value="1.600"/>
            <param key="device.toc.ogChangeRate" value="0.800"/>
            <param key="device.toc.mrmDecel" value="3.000"/>
            <param key="device.toc.useColorScheme" value="true"/>
            <param key="device.toc.dynamicToCThreshold" value="9.602"/>
            <param key="has.ssm.device" value="true"/>
            <param key="device.ssm.measures" value="TTC DRAC PET"/>
            <param key="device.ssm.thresholds" value="0.75 6.0 2.0"/>
            <param key="device.ssm.range" value="30.000"/>
            <param key="device.ssm.extratime" value="5.000"/>
            <param key="device.ssm.file" value="Output-Files\SSM-L4-AV.xml"/>
            <param key="device.ssm.trajectories" value="false"/>
            <param key="device.ssm.geo" value="false"/>
        </vType>
        <vType id="L4-AV-7" vClass="custom1" carFollowModel="ACC" color="orange" tau="0.600" decel="2.747" accel="1.314" emergencyDecel="9.000" lcAssertive="0.836" actionStepLength="0.100">
            <param key="has.toc.device" value="true"/>
            <param key="device.toc.manualType" value="L0-HDV-"/>
            <param key="device.toc.automatedType" value="L4-AV-"/>
            <param key="device.toc.reponseTime" value="4.182"/>
            <param key="device.toc.initialAwareness" value="0.744"/>
            <param key="device.toc.recoveryRate" value="0.297"/>
            <param key="device.toc.tauCACCtoACC" value="1.464"/>
            <param key="device.toc.ogNewTimeHeadway" value="1.600"/>
            <param key="device.toc.ogChangeRate" value="0.800"/>
            <param key="device.toc.mrmDecel" value="3.000"/>
            <param key="device.toc.useColorScheme" value="true"/>
            <param key="device.toc.dynamicToCThreshold" value="8.067"/>
            <param key="has.ssm.device" value="true"/>
            <param key="device.ssm.measures" value="TTC DRAC PET"/>
            <param key="device.ssm.thresholds" value="0.75 6.0 2.0"/>
            <param key="device.ssm.range" value="30.000"/>
            <param key="device.ssm.extratime" value="5.000"/>
            <param key="device.ssm.file" value="Output-Files\SSM-L4-AV.xml"/>
            <param key="device.ssm.trajectories" value="false"/>
            <param key="device.ssm.geo" value="false"/>
        </vType>
        <vType id="L4-AV-8" vClass="custom1" carFollowModel="ACC" color="orange" tau="0.600" decel="2.866" accel="1.840" emergencyDecel="9.000" lcAssertive="0.833" actionStepLength="0.100">
            <param key="has.toc.device" value="true"/>
            <param key="device.toc.manualType" value="L0-HDV-"/>
            <param key="device.toc.automatedType" value="L4-AV-"/>
            <param key="device.toc.reponseTime" value="4.574"/>
            <param key="device.toc.initialAwareness" value="0.235"/>
            <param key="device.toc.recoveryRate" value="0.303"/>
            <param key="device.toc.tauCACCtoACC" value="1.323"/>
            <param key="device.toc.ogNewTimeHeadway" value="1.600"/>
            <param key="device.toc.ogChangeRate" value="0.800"/>
            <param key="device.toc.mrmDecel" value="3.000"/>
            <param key="device.toc.useColorScheme" value="true"/>
            <param key="device.toc.dynamicToCThreshold" value="9.251"/>
            <param key="has.ssm.device" value="true"/>
            <param key="device.ssm.measures" value="TTC DRAC PET"/>
            <param key="device.ssm.thresholds" value="0.75 6.0 2.0"/>
            <param key="device.ssm.range" value="30.000"/>
            <param key="device.ssm.extratime" value="5.000"/>
            <param key="device.ssm.file" value="Output-Files\SSM-L4-AV.xml"/>
            <param key="device.ssm.trajectories" value="false"/>
            <param key="device.ssm.geo" value="false"/>
        </vType>
        <vType id="L4-AV-9" vClass="custom1" carFollowModel="ACC" color="orange" tau="0.600" decel="2.484" accel="1.926" emergencyDecel="9.000" lcAssertive="0.843" actionStepLength="0.100">
            <param key="has.toc.device" value="true"/>
            <param key="device.toc.manualType" value="L0-HDV-"/>
            <param key="device.toc.automatedType" value="L4-AV-"/>
            <param key="device.toc.reponseTime" value="5.197"/>
            <param key="device.toc.initialAwareness" value="0.242"/>
            <param key="device.toc.recoveryRate" value="0.226"/>
            <param key="device.toc.tauCACCtoACC" value="1.584"/>
            <param key="device.toc.ogNewTimeHeadway" value="1.600"/>
            <param key="device.toc.ogChangeRate" value="0.800"/>
            <param key="device.toc.mrmDecel" value="3.000"/>
            <param key="device.toc.useColorScheme" value="true"/>
            <param key="device.toc.dynamicToCThreshold" value="8.365"/>
            <param key="has.ssm.device" value="true"/>
            <param key="device.ssm.measures" value="TTC DRAC PET"/>
            <param key="device.ssm.thresholds" value="0.75 6.0 2.0"/>
            <param key="device.ssm.range" value="30.000"/>
            <param key="device.ssm.extratime" value="5.000"/>
            <param key="device.ssm.file" value="Output-Files\SSM-L4-AV.xml"/>
            <param key="device.ssm.trajectories" value="false"/>
            <param key="device.ssm.geo" value="false"/>
        </vType>
        <vType id="L4-AV-10" vClass="custom1" carFollowModel="ACC" color="orange" tau="0.600" decel="2.070" accel="1.234" emergencyDecel="9.000" lcAssertive="0.889" actionStepLength="0.100">
            <param key="has.toc.device" value="true"/>
            <param key="device.toc.manualType" value="L0-HDV-"/>
            <param key="device.toc.automatedType" value="L4-AV-"/>
            <param key="device.toc.reponseTime" value="5.553"/>
            <param key="device.toc.initialAwareness" value="0.298"/>
            <param key="device.toc.recoveryRate" value="0.201"/>
            <param key="device.toc.tauCACCtoACC" value="1.594"/>
            <param key="device.toc.ogNewTimeHeadway" value="1.600"/>
            <param key="device.toc.ogChangeRate" value="0.800"/>
            <param key="device.toc.mrmDecel" value="3.000"/>
            <param key="device.toc.useColorScheme" value="true"/>
            <param key="device.toc.dynamicToCThreshold" value="9.156"/>
            <param key="has.ssm.device" value="true"/>
            <param key="device.ssm.measures" value="TTC DRAC PET"/>
            <param key="device.ssm.thresholds" value="0.75 6.0 2.0"/>
            <param key="device.ssm.range" value="30.000"/>
            <param key="device.ssm.extratime" value="5.000"/>
            <param key="device.ssm.file" value="Output-Files\SSM-L4-AV.xml"/>
            <param key="device.ssm.trajectories" value="false"/>
            <param key="device.ssm.geo" value="false"/>
        </vType>
        <vType id="L4-AV-11" vClass="custom1" carFollowModel="ACC" color="orange" tau="0.600" decel="2.792" accel="1.319" emergencyDecel="9.000" lcAssertive="0.856" actionStepLength="0.100">
            <param key="has.toc.device" value="true"/>
            <param key="device.toc.manualType" value="L0-HDV-"/>
            <param key="device.toc.automatedType" value="L4-AV-"/>
            <param key="device.toc.reponseTime" value="5.846"/>
            <param key="device.toc.initialAwareness" value="0.575"/>
            <param key="device.toc.recoveryRate" value="0.452"/>
            <param key="device.toc.tauCACCtoACC" value="1.775"/>
            <param key="device.toc.ogNewTimeHeadway" value="1.600"/>
            <param key="device.toc.ogChangeRate" value="0.800"/>
            <param key="device.toc.mrmDecel" value="3.000"/>
            <param key="device.toc.useColorScheme" value="true"/>
            <param key="device.toc.dynamicToCThreshold" value="8.654"/>
            <param key="has.ssm.device" value="true"/>
            <param key="device.ssm.measures" value="TTC DRAC PET"/>
            <param key="device.ssm.thresholds" value="0.75 6.0 2.0"/>
            <param key="device.ssm.range" value="30.000"/>
            <param key="device.ssm.extratime" value="5.000"/>
            <param key="device.ssm.file" value="Output-Files\SSM-L4-AV.xml"/>
            <param key="device.ssm.trajectories" value="false"/>
            <param key="device.ssm.geo" value="false"/>
        </vType>
        <vType id="L4-AV-12" vClass="custom1" carFollowModel="ACC" color="orange" tau="0.600" decel="3.866" accel="1.021" emergencyDecel="9.000" lcAssertive="0.842" actionStepLength="0.100">
            <param key="has.toc.device" value="true"/>
            <param key="device.toc.manualType" value="L0-HDV-"/>
            <param key="device.toc.automatedType" value="L4-AV-"/>
            <param key="device.toc.reponseTime" value="5.454"/>
            <param key="device.toc.initialAwareness" value="0.711"/>
            <param key="device.toc.recoveryRate" value="0.040"/>
            <param key="device.toc.tauCACCtoACC" value="1.480"/>
            <param key="device.toc.ogNewTimeHeadway" value="1.600"/>
            <param key="device.toc.ogChangeRate" value="0.800"/>
            <param key="device.toc.mrmDecel" value="3.000"/>
            <param key="device.toc.useColorScheme" value="true"/>
            <param key="device.toc.dynamicToCThreshold" value="9.328"/>
            <param key="has.ssm.device" value="true"/>
            <param key="device.ssm.measures" value="TTC DRAC PET"/>
            <param key="device.ssm.thresholds" value="0.75 6.0 2.0"/>
            <param key="device.ssm.range" value="30.000"/>
            <param key="device.ssm.extratime" value="5.000"/>
            <param key="device.ssm.file" value="Output-Files\SSM-L4-AV.xml"/>
            <param key="device.ssm.trajectories" value="false"/>
            <param key="device.ssm.geo" value="false"/>
        </vType>
        <vType id="L4-AV-13" vClass="custom1" carFollowModel="ACC" color="orange" tau="0.600" decel="3.404" accel="1.873" emergencyDecel="9.000" lcAssertive="0.841" actionStepLength="0.100">
            <param key="has.toc.device" value="true"/>
            <param key="device.toc.manualType" value="L0-HDV-"/>
            <param key="device.toc.automatedType" value="L4-AV-"/>
            <param key="device.toc.reponseTime" value="1.110"/>
            <param key="device.toc.initialAwareness" value="0.647"/>
            <param key="device.toc.recoveryRate" value="0.426"/>
            <param key="device.toc.tauCACCtoACC" value="1.450"/>
            <param key="device.toc.ogNewTimeHeadway" value="1.600"/>
            <param key="device.toc.ogChangeRate" value="0.800"/>
            <param key="device.toc.mrmDecel" value="3.000"/>
            <param key="device.toc.useColorScheme" value="true"/>
            <param key="device.toc.dynamicToCThreshold" value="9.210"/>
            <param key="has.ssm.device" value="true"/>
            <param key="device.ssm.measures" value="TTC DRAC PET"/>
            <param key="device.ssm.thresholds" value="0.75 6.0 2.0"/>
            <param key="device.ssm.range" value="30.000"/>
            <param key="device.ssm.extratime" value="5.000"/>
            <param key="device.ssm.file" value="Output-Files\SSM-L4-AV.xml"/>
            <param key="device.ssm.trajectories" value="false"/>
            <param key="device.ssm.geo" value="false"/>
        </vType>
        <vType id="L4-AV-14" vClass="custom1" carFollowModel="ACC" color="orange" tau="0.600" decel="3.539" accel="0.947" emergencyDecel="9.000" lcAssertive="0.845" actionStepLength="0.100">
            <param key="has.toc.device" value="true"/>
            <param key="device.toc.manualType" value="L0-HDV-"/>
            <param key="device.toc.automatedType" value="L4-AV-"/>
            <param key="device.toc.reponseTime" value="1.793"/>
            <param key="device.toc.initialAwareness" value="0.959"/>
            <param key="device.toc.recoveryRate" value="0.224"/>
            <param key="device.toc.tauCACCtoACC" value="1.443"/>
            <param key="device.toc.ogNewTimeHeadway" value="1.600"/>
            <param key="device.toc.ogChangeRate" value="0.800"/>
            <param key="device.toc.mrmDecel" value="3.000"/>
            <param key="device.toc.useColorScheme" value="true"/>
            <param key="device.toc.dynamicToCThreshold" value="9.248"/>
            <param key="has.ssm.device" value="true"/>
            <param key="device.ssm.measures" value="TTC DRAC PET"/>
            <param key="device.ssm.thresholds" value="0.75 6.0 2.0"/>
            <param key="device.ssm.range" value="30.000"/>
            <param key="device.ssm.extratime" value="5.000"/>
            <param key="device.ssm.file" value="Output-Files\SSM-L4-AV.xml"/>
            <param key="device.ssm.trajectories" value="false"/>
            <param key="device.ssm.geo" value="false"/>
        </vType>
        <vType id="L4-AV-15" vClass="custom1" carFollowModel="ACC" color="orange" tau="0.600" decel="2.874" accel="1.035" emergencyDecel="9.000" lcAssertive="0.862" actionStepLength="0.100">
            <param key="has.toc.device" value="true"/>
            <param key="device.toc.manualType" value="L0-HDV-"/>
            <param key="device.toc.automatedType" value="L4-AV-"/>
            <param key="device.toc.reponseTime" value="1.060"/>
            <param key="device.toc.initialAwareness" value="0.669"/>
            <param key="device.toc.recoveryRate" value="0.520"/>
            <param key="device.toc.tauCACCtoACC" value="1.576"/>
            <param key="device.toc.ogNewTimeHeadway" value="1.600"/>
            <param key="device.toc.ogChangeRate" value="0.800"/>
            <param key="device.toc.mrmDecel" value="3.000"/>
            <param key="device.toc.useColorScheme" value="true"/>
            <param key="device.toc.dynamicToCThreshold" value="8.583"/>
            <param key="has.ssm.device" value="true"/>
            <param key="device.ssm.measures" value="TTC DRAC PET"/>
            <param key="device.ssm.thresholds" value="0.75 6.0 2.0"/>
            <param key="device.ssm.range" value="30.000"/>
            <param key="device.ssm.extratime" value="5.000"/>
            <param key="device.ssm.file" value="Output-Files\SSM-L4-AV.xml"/>
            <param key="device.ssm.trajectories" value="false"/>
            <param key="device.ssm.geo" value="false"/>
        </vType>
        <vType id="L4-AV-16" vClass="custom1" carFollowModel="ACC" color="orange" tau="0.600" decel="2.604" accel="1.487" emergencyDecel="9.000" lcAssertive="0.887" actionStepLength="0.100">
            <param key="has.toc.device" value="true"/>
            <param key="device.toc.manualType" value="L0-HDV-"/>
            <param key="device.toc.automatedType" value="L4-AV-"/>
            <param key="device.toc.reponseTime" value="1.652"/>
            <param key="device.toc.initialAwareness" value="0.606"/>
            <param key="device.toc.recoveryRate" value="0.262"/>
            <param key="device.toc.tauCACCtoACC" value="2.156"/>
            <param key="device.toc.ogNewTimeHeadway" value="1.600"/>
            <param key="device.toc.ogChangeRate" value="0.800"/>
            <param key="device.toc.mrmDecel" value="3.000"/>
            <param key="device.toc.useColorScheme" value="true"/>
            <param key="device.toc.dynamicToCThreshold" value="9.867"/>
            <param key="has.ssm.device" value="true"/>
            <param key="device.ssm.measures" value="TTC DRAC PET"/>
            <param key="device.ssm.thresholds" value="0.75 6.0 2.0"/>
            <param key="device.ssm.range" value="30.000"/>
            <param key="device.ssm.extratime" value="5.000"/>
            <param key="device.ssm.file" value="Output-Files\SSM-L4-AV.xml"/>
            <param key="device.ssm.trajectories" value="false"/>
            <param key="device.ssm.geo" value="false"/>
        </vType>
        <vType id="L4-AV-17" vClass="custom1" carFollowModel="ACC" color="orange" tau="0.600" decel="3.760" accel="1.441" emergencyDecel="9.000" lcAssertive="0.826" actionStepLength="0.100">
            <param key="has.toc.device" value="true"/>
            <param key="device.toc.manualType" value="L0-HDV-"/>
            <param key="device.toc.automatedType" value="L4-AV-"/>
            <param key="device.toc.reponseTime" value="5.905"/>
            <param key="device.toc.initialAwareness" value="0.660"/>
            <param key="device.toc.recoveryRate" value="0.199"/>
            <param key="device.toc.tauCACCtoACC" value="1.385"/>
            <param key="device.toc.ogNewTimeHeadway" value="1.600"/>
            <param key="device.toc.ogChangeRate" value="0.800"/>
            <param key="device.toc.mrmDecel" value="3.000"/>
            <param key="device.toc.useColorScheme" value="true"/>
            <param key="device.toc.dynamicToCThreshold" value="9.040"/>
            <param key="has.ssm.device" value="true"/>
            <param key="device.ssm.measures" value="TTC DRAC PET"/>
            <param key="device.ssm.thresholds" value="0.75 6.0 2.0"/>
            <param key="device.ssm.range" value="30.000"/>
            <param key="device.ssm.extratime" value="5.000"/>
            <param key="device.ssm.file" value="Output-Files\SSM-L4-AV.xml"/>
            <param key="device.ssm.trajectories" value="false"/>
            <param key="device.ssm.geo" value="false"/>
        </vType>
        <vType id="L4-AV-18" vClass="custom1" carFollowModel="ACC" color="orange" tau="0.600" decel="3.378" accel="1.153" emergencyDecel="9.000" lcAssertive="0.846" actionStepLength="0.100">
            <param key="has.toc.device" value="true"/>
            <param key="device.toc.manualType" value="L0-HDV-"/>
            <param key="device.toc.automatedType" value="L4-AV-"/>
            <param key="device.toc.reponseTime" value="1.121"/>
            <param key="device.toc.initialAwareness" value="0.695"/>
            <param key="device.toc.recoveryRate" value="0.197"/>
            <param key="device.toc.tauCACCtoACC" value="1.390"/>
            <param key="device.toc.ogNewTimeHeadway" value="1.600"/>
            <param key="device.toc.ogChangeRate" value="0.800"/>
            <param key="device.toc.mrmDecel" value="3.000"/>
            <param key="device.toc.useColorScheme" value="true"/>
            <param key="device.toc.dynamicToCThreshold" value="9.100"/>
            <param key="has.ssm.device" value="true"/>
            <param key="device.ssm.measures" value="TTC DRAC PET"/>
            <param key="device.ssm.thresholds" value="0.75 6.0 2.0"/>
            <param key="device.ssm.range" value="30.000"/>
            <param key="device.ssm.extratime" value="5.000"/>
            <param key="device.ssm.file" value="Output-Files\SSM-L4-AV.xml"/>
            <param key="device.ssm.trajectories" value="false"/>
            <param key="device.ssm.geo" value="false"/>
        </vType>
        <vType id="L4-AV-19" vClass="custom1" carFollowModel="ACC" color="orange" tau="0.600" decel="2.386" accel="1.387" emergencyDecel="9.000" lcAssertive="0.832" actionStepLength="0.100">
            <param key="has.toc.device" value="true"/>
            <param key="device.toc.manualType" value="L0-HDV-"/>
            <param key="device.toc.automatedType" value="L4-AV-"/>
            <param key="device.toc.reponseTime" value="3.607"/>
            <param key="device.toc.initialAwareness" value="0.587"/>
            <param key="device.toc.recoveryRate" value="0.322"/>
            <param key="device.toc.tauCACCtoACC" value="1.417"/>
            <param key="device.toc.ogNewTimeHeadway" value="1.600"/>
            <param key="device.toc.ogChangeRate" value="0.800"/>
            <param key="device.toc.mrmDecel" value="3.000"/>
            <param key="device.toc.useColorScheme" value="true"/>