<?xml version="1.0" encoding="UTF-8"?>

<!-- generated on 03/31/21 20:03:33 by Eclipse SUMO sumo Version 1.8.0
<configuration xmlns:xsi="http://www.w3.org/2001/XMLSchema-instance" xsi:noNamespaceSchemaLocation="http://sumo.dlr.de/xsd/sumoConfiguration.xsd">

    <input>
        <net-file value="Collision\BaselinePenetration1\../CollisionIntersection.net.xml"/>
        <route-files value="Collision\BaselinePenetration1\../CrashedVehicleRoutes.rou.xml,Collision\BaselinePenetration1\Route-Files/L4-CV-Route.rou.xml,Collision\BaselinePenetration1\Route-Files/L4-AV-Route.rou.xml,Collision\BaselinePenetration1\Route-Files/L2-CV-Route.rou.xml,Collision\BaselinePenetration1\Route-Files/L2-AV-Route.rou.xml,Collision\BaselinePenetration1\Route-Files/L0-HDV-Route.rou.xml"/>
        <additional-files value="Collision\BaselinePenetration1\../Additional-Files/Collision-Detectors.add.xml,Collision\BaselinePenetration1\../Additional-Files/Collision-TMS-Rerouters.add.xml,Collision\BaselinePenetration1\PreparingVehicleModels/Vehicle-Models/L4-CV.add.xml,Collision\BaselinePenetration1\PreparingVehicleModels/Vehicle-Models/L4-CV-Left.add.xml,Collision\BaselinePenetration1\PreparingVehicleModels/Vehicle-Models/L4-CV-Right.add.xml,Collision\BaselinePenetration1\PreparingVehicleModels/Vehicle-Models/L4-AV.add.xml,Collision\BaselinePenetration1\PreparingVehicleModels/Vehicle-Models/L4-AV-Left.add.xml,Collision\BaselinePenetration1\PreparingVehicleModels/Vehicle-Models/L4-AV-Right.add.xml,Collision\BaselinePenetration1\PreparingVehicleModels/Vehicle-Models/L2-CV.add.xml,Collision\BaselinePenetration1\PreparingVehicleModels/Vehicle-Models/L2-CV-Left.add.xml,Collision\BaselinePenetration1\PreparingVehicleModels/Vehicle-Models/L2-CV-Right.add.xml,Collision\BaselinePenetration1\PreparingVehicleModels/Vehicle-Models/L2-AV.add.xml,Collision\BaselinePenetration1\PreparingVehicleModels/Vehicle-Models/L2-AV-Left.add.xml,Collision\BaselinePenetration1\PreparingVehicleModels/Vehicle-Models/L2-AV-Right.add.xml,Collision\BaselinePenetration1\PreparingVehicleModels/Vehicle-Models/L0-HDV.add.xml,Collision\BaselinePenetration1\PreparingVehicleModels/Vehicle-Models/L0-HDV-Left.add.xml,Collision\BaselinePenetration1\PreparingVehicleModels/Vehicle-Models/L0-HDV-Straight.add.xml,Collision\BaselinePenetration1\../Additional-Files/Collision-Traffic-lights.add.xml,Collision\BaselinePenetration1\../Additional-Files/Collision-Traffic-Signs.add.xml"/>
    </input>

    <output>
        <tripinfo-output value="Collision\BaselinePenetration1\Output-Files\TripInfo.xml"/>
    </output>

    <time>
        <begin value="0"/>
        <step-length value="0.1"/>
    </time>

    <processing>
        <ignore-route-errors value="true"/>
        <waiting-time-memory value="300"/>
        <default.action-step-length value="0.1"/>
    </processing>

    <report>
        <no-warnings value="true"/>
    </report>

    <emissions>
        <device.emissions.probability value="1"/>
    </emissions>

    <traci_server>
        <remote-port value="55094"/>
    </traci_server>

    <gui_only>
        <quit-on-end value="true"/>
        <start value="true"/>
        <tracker-interval value="0.1"/>
    </gui_only>

</configuration>
-->

<tripinfos xmlns:xsi="http://www.w3.org/2001/XMLSchema-instance" xsi:noNamespaceSchemaLocation="http://sumo.dlr.de/xsd/tripinfo_file.xsd">
    <tripinfo id="L0-HDV-6" depart="132.90" departLane="right-approaching_0" departPos="5.10" departSpeed="0.00" departDelay="0.00" arrival="193.90" arrivalLane="left-exit_1" arrivalPos="410.00" arrivalSpeed="19.63" duration="61.00" routeLength="995.12" waitingTime="0.30" waitingCount="1" stopTime="0.00" timeLoss="10.23" rerouteNo="0" devices="tripinfo_L0-HDV-6 emissions_L0-HDV-6 ssm_L0-HDV-6" vType="L0-HDV-58@L0-HDV-6" speedFactor="1.18" vaporized="">
        <emissions CO_abs="2755.585048" CO2_abs="209921.086123" HC_abs="17.369425" PMx_abs="3.966581" NOx_abs="84.306787" fuel_abs="90.235586" electricity_abs="0"/>
    </tripinfo>
    <tripinfo id="L2-CV-1" depart="128.40" departLane="left-long-approaching_0" departPos="5.10" departSpeed="0.00" departDelay="0.00" arrival="197.40" arrivalLane="right-exit_0" arrivalPos="486.40" arrivalSpeed="15.82" duration="69.00" routeLength="995.23" waitingTime="0.00" waitingCount="0" stopTime="0.00" timeLoss="5.95" rerouteNo="0" devices="tripinfo_L2-CV-1 emissions_L2-CV-1 ssm_L2-CV-1 toc_L2-CV-1 driverstateL2-CV-1" vType="L2-CV-56" speedFactor="0.95" vaporized="">
        <emissions CO_abs="1293.759381" CO2_abs="204489.668464" HC_abs="7.413866" PMx_abs="2.026061" NOx_abs="68.030720" fuel_abs="87.902167" electricity_abs="0"/>
    </tripinfo>
    <tripinfo id="L0-HDV-7" depart="135.20" departLane="right-approaching_0" departPos="5.10" departSpeed="0.00" departDelay="0.15" arrival="202.30" arrivalLane="bottom-exit_0" arrivalPos="486.40" arrivalSpeed="16.93" duration="67.10" routeLength="992.21" waitingTime="0.00" waitingCount="0" stopTime="0.00" timeLoss="7.49" rerouteNo="0" devices="tripinfo_L0-HDV-7 emissions_L0-HDV-7 ssm_L0-HDV-7" vType="L0-HDV-70" speedFactor="1.02" vaporized="">
        <emissions CO_abs="2081.138780" CO2_abs="186899.600216" HC_abs="13.245065" PMx_abs="2.957500" NOx_abs="71.562455" fuel_abs="80.340147" electricity_abs="0"/>
    </tripinfo>
    <tripinfo id="L2-CV-2" depart="138.20" departLane="right-approaching_0" departPos="5.10" departSpeed="0.00" departDelay="1.40" arrival="203.10" arrivalLane="bottom-exit_1" arrivalPos="486.40" arrivalSpeed="18.87" duration="64.90" routeLength="992.21" waitingTime="0.00" waitingCount="0" stopTime="0.00" timeLoss="11.41" rerouteNo="0" devices="tripinfo_L2-CV-2 emissions_L2-CV-2 ssm_L2-CV-2 toc_L2-CV-2 driverstateL2-CV-2" vType="L2-CV-7" speedFactor="1.13" vaporized="">
        <emissions CO_abs="2257.802058" CO2_abs="214628.241956" HC_abs="14.345240" PMx_abs="3.347827" NOx_abs="80.613295" fuel_abs="92.259544" electricity_abs="0"/>
    </tripinfo>
    <tripinfo id="L0-HDV-16" depart="158.20" departLane="left-long-approaching_0" departPos="5.10" departSpeed="0.00" departDelay="3.80" arrival="215.10" arrivalLane="top-exit_1" arrivalPos="486.40" arrivalSpeed="20.72" duration="56.90" routeLength="992.31" waitingTime="0.00" waitingCount="0" stopTime="0.00" timeLoss="8.19" rerouteNo="0" devices="tripinfo_L0-HDV-16 emissions_L0-HDV-16 ssm_L0-HDV-16" vType="L0-HDV-Left-77" speedFactor="1.24" vaporized="">
        <emissions CO_abs="2713.885559" CO2_abs="222592.358518" HC_abs="17.658534" PMx_abs="4.137597" NOx_abs="88.349988" fuel_abs="95.682418" electricity_abs="0"/>
    </tripinfo>
    <tripinfo id="L2-CV-0" depart="120.00" departLane="bottom-approaching_0" departPos="5.10" departSpeed="0.00" departDelay="0.00" arrival="235.90" arrivalLane="right-exit_0" arrivalPos="486.40" arrivalSpeed="20.01" duration="115.90" routeLength="979.43" waitingTime="43.90" waitingCount="1" stopTime="0.00" timeLoss="66.08" rerouteNo="0" devices="tripinfo_L2-CV-0 emissions_L2-CV-0 ssm_L2-CV-0 toc_L2-CV-0 driverstateL2-CV-0" vType="L2-CV-0" speedFactor="1.20" vaporized="">
        <emissions CO_abs="10896.280164" CO2_abs="396801.516265" HC_abs="57.761951" PMx_abs="7.457903" NOx_abs="159.603579" fuel_abs="170.571764" electricity_abs="0"/>
    </tripinfo>
    <tripinfo id="L0-HDV-21" depart="165.20" departLane="top-approaching_0" departPos="5.10" departSpeed="0.00" departDelay="0.05" arrival="237.40" arrivalLane="bottom-exit_1" arrivalPos="486.40" arrivalSpeed="19.69" duration="72.20" routeLength="994.90" waitingTime="0.00" waitingCount="0" stopTime="0.00" timeLoss="21.56" rerouteNo="0" devices="tripinfo_L0-HDV-21 emissions_L0-HDV-21 ssm_L0-HDV-21" vType="L0-HDV-24" speedFactor="1.18" vaporized="">
        <emissions CO_abs="3232.160068" CO2_abs="225062.616343" HC_abs="19.657844" PMx_abs="4.004173" NOx_abs="88.989106" fuel_abs="96.744809" electricity_abs="0"/>
    </tripinfo>
    <tripinfo id="L0-HDV-25" depart="173.80" departLane="bottom-approaching_0" departPos="5.10" departSpeed="0.00" departDelay="0.05" arrival="237.40" arrivalLane="right-exit_1" arrivalPos="486.40" arrivalSpeed="19.20" duration="63.60" routeLength="979.43" waitingTime="0.00" waitingCount="0" stopTime="0.00" timeLoss="12.10" rerouteNo="0" devices="tripinfo_L0-HDV-25 emissions_L0-HDV-25 ssm_L0-HDV-25" vType="L0-HDV-32" speedFactor="1.16" vaporized="">
        <emissions CO_abs="3136.298465" CO2_abs="242177.197989" HC_abs="19.999014" PMx_abs="4.447829" NOx_abs="97.248460" fuel_abs="104.101141" electricity_abs="0"/>
    </tripinfo>
    <tripinfo id="L0-HDV-1" depart="123.90" departLane="bottom-approaching_0" departPos="5.10" departSpeed="0.00" departDelay="1.75" arrival="237.50" arrivalLane="top-exit_0" arrivalPos="486.40" arrivalSpeed="17.24" duration="113.60" routeLength="994.90" waitingTime="39.70" waitingCount="1" stopTime="0.00" timeLoss="56.16" rerouteNo="0" devices="tripinfo_L0-HDV-1 emissions_L0-HDV-1 ssm_L0-HDV-1" vType="L0-HDV-32" speedFactor="1.04" vaporized="">
        <emissions CO_abs="10124.743393" CO2_abs="349314.777701" HC_abs="54.238887" PMx_abs="7.009915" NOx_abs="146.456246" fuel_abs="150.158429" electricity_abs="0"/>
    </tripinfo>
    <tripinfo id="L0-HDV-17" depart="156.60" departLane="bottom-approaching_0" departPos="5.10" departSpeed="0.00" departDelay="0.05" arrival="238.00" arrivalLane="top-exit_1" arrivalPos="486.40" arrivalSpeed="23.88" duration="81.40" routeLength="994.90" waitingTime="0.00" waitingCount="0" stopTime="0.00" timeLoss="39.76" rerouteNo="0" devices="tripinfo_L0-HDV-17 emissions_L0-HDV-17 ssm_L0-HDV-17" vType="L0-HDV-2" speedFactor="1.44" vaporized="">
        <emissions CO_abs="5674.022644" CO2_abs="306720.038063" HC_abs="33.233332" PMx_abs="6.241344" NOx_abs="127.122183" fuel_abs="131.845762" electricity_abs="0"/>
    </tripinfo>
    <tripinfo id="L2-AV-1" depart="128.40" departLane="bottom-approaching_0" departPos="5.10" departSpeed="0.00" departDelay="0.00" arrival="240.10" arrivalLane="top-exit_0" arrivalPos="486.40" arrivalSpeed="16.59" duration="111.70" routeLength="994.90" waitingTime="0.00" waitingCount="0" stopTime="0.00" timeLoss="51.64" rerouteNo="0" devices="tripinfo_L2-AV-1 emissions_L2-AV-1 ssm_L2-AV-1 toc_L2-AV-1 driverstateL2-AV-1" vType="L2-AV-56" speedFactor="1.00" vaporized="">
        <emissions CO_abs="2822.819743" CO2_abs="240940.792302" HC_abs="15.993852" PMx_abs="3.275538" NOx_abs="87.803223" fuel_abs="103.570873" electricity_abs="0"/>
    </tripinfo>
    <tripinfo id="L2-CV-3" depart="145.20" departLane="bottom-approaching_0" departPos="5.10" departSpeed="0.00" departDelay="0.00" arrival="241.40" arrivalLane="top-exit_1" arrivalPos="486.40" arrivalSpeed="19.65" duration="96.20" routeLength="994.90" waitingTime="0.00" waitingCount="0" stopTime="0.00" timeLoss="45.50" rerouteNo="0" devices="tripinfo_L2-CV-3 emissions_L2-CV-3 ssm_L2-CV-3 toc_L2-CV-3 driverstateL2-CV-3" vType="L2-CV-21" speedFactor="1.18" vaporized="">
        <emissions CO_abs="3843.945987" CO2_abs="248881.536575" HC_abs="23.030869" PMx_abs="4.312806" NOx_abs="98.207174" fuel_abs="106.983916" electricity_abs="0"/>
    </tripinfo>
    <tripinfo id="L0-HDV-3" depart="126.50" departLane="top-approaching_0" departPos="5.10" departSpeed="0.00" departDelay="0.05" arrival="244.40" arrivalLane="bottom-exit_0" arrivalPos="486.40" arrivalSpeed="12.88" duration="117.90" routeLength="994.90" waitingTime="31.80" waitingCount="1" stopTime="0.00" timeLoss="41.62" rerouteNo="0" devices="tripinfo_L0-HDV-3 emissions_L0-HDV-3 ssm_L0-HDV-3" vType="L0-HDV-3" speedFactor="0.78" vaporized="">
        <emissions CO_abs="8971.181406" CO2_abs="328882.408380" HC_abs="48.596915" PMx_abs="6.495809" NOx_abs="138.822146" fuel_abs="141.374788" electricity_abs="0"/>
    </tripinfo>
    <tripinfo id="L2-AV-3" depart="145.20" departLane="top-approaching_0" departPos="5.10" departSpeed="0.00" departDelay="0.00" arrival="244.80" arrivalLane="bottom-exit_1" arrivalPos="486.40" arrivalSpeed="14.71" duration="99.60" routeLength="994.90" waitingTime="0.00" waitingCount="0" stopTime="0.00" timeLoss="31.84" rerouteNo="0" devices="tripinfo_L2-AV-3 emissions_L2-AV-3 ssm_L2-AV-3 toc_L2-AV-3 driverstateL2-AV-3" vType="L2-AV-20" speedFactor="0.88" vaporized="">
        <emissions CO_abs="2309.988786" CO2_abs="200244.206485" HC_abs="13.804398" PMx_abs="2.574229" NOx_abs="73.297386" fuel_abs="86.077232" electricity_abs="0"/>
    </tripinfo>
    <tripinfo id="L0-HDV-32" depart="188.80" departLane="bottom-approaching_0" departPos="5.10" departSpeed="0.00" departDelay="0.00" arrival="250.50" arrivalLane="right-exit_1" arrivalPos="486.40" arrivalSpeed="18.77" duration="61.70" routeLength="979.43" waitingTime="0.00" waitingCount="0" stopTime="0.00" timeLoss="8.70" rerouteNo="0" devices="tripinfo_L0-HDV-32 emissions_L0-HDV-32 ssm_L0-HDV-32" vType="L0-HDV-22" speedFactor="1.13" vaporized="">
        <emissions CO_abs="3551.417187" CO2_abs="259416.048265" HC_abs="22.372695" PMx_abs="5.067527" NOx_abs="106.931617" fuel_abs="111.510976" electricity_abs="0"/>
    </tripinfo>
    <tripinfo id="L4-AV-2" depart="173.80" departLane="top-approaching_0" departPos="5.10" departSpeed="0.00" departDelay="1.80" arrival="252.50" arrivalLane="right-exit_0" arrivalPos="486.40" arrivalSpeed="13.99" duration="78.70" routeLength="992.21" waitingTime="0.00" waitingCount="0" stopTime="0.00" timeLoss="6.66" rerouteNo="0" devices="tripinfo_L4-AV-2 emissions_L4-AV-2 ssm_L4-AV-2 toc_L4-AV-2 driverstateL4-AV-2" vType="L4-AV-74" speedFactor="0.84" vaporized="">
        <emissions CO_abs="1717.691133" CO2_abs="222721.035205" HC_abs="11.102191" PMx_abs="2.309292" NOx_abs="77.197058" fuel_abs="95.739289" electricity_abs="0"/>
    </tripinfo>
    <tripinfo id="L0-HDV-35" depart="195.30" departLane="top-approaching_0" departPos="5.10" departSpeed="0.00" departDelay="0.05" arrival="253.60" arrivalLane="bottom-exit_1" arrivalPos="486.40" arrivalSpeed="18.79" duration="58.30" routeLength="994.90" waitingTime="0.00" waitingCount="0" stopTime="0.00" timeLoss="5.57" rerouteNo="0" devices="tripinfo_L0-HDV-35 emissions_L0-HDV-35 ssm_L0-HDV-35" vType="L0-HDV-27" speedFactor="1.13" vaporized="">
        <emissions CO_abs="3298.793466" CO2_abs="249948.473250" HC_abs="21.011345" PMx_abs="4.959483" NOx_abs="102.987866" fuel_abs="107.441134" electricity_abs="0"/>
    </tripinfo>
    <tripinfo id="L0-HDV-18" depart="158.70" departLane="top-approaching_0" departPos="5.10" departSpeed="0.00" departDelay="0.00" arrival="255.80" arrivalLane="bottom-exit_0" arrivalPos="486.40" arrivalSpeed="11.44" duration="97.10" routeLength="994.90" waitingTime="0.00" waitingCount="0" stopTime="0.00" timeLoss="10.25" rerouteNo="0" devices="tripinfo_L0-HDV-18 emissions_L0-HDV-18 ssm_L0-HDV-18" vType="L0-HDV-39" speedFactor="0.69" vaporized="">
        <emissions CO_abs="2570.205419" CO2_abs="172601.090321" HC_abs="15.634556" PMx_abs="2.352989" NOx_abs="65.806946" fuel_abs="74.194845" electricity_abs="0"/>
    </tripinfo>
    <tripinfo id="L2-CV-11" depart="212.40" departLane="top-approaching_0" departPos="5.10" departSpeed="0.00" departDelay="0.00" arrival="276.90" arrivalLane="right-exit_0" arrivalPos="486.40" arrivalSpeed="17.30" duration="64.50" routeLength="992.21" waitingTime="0.00" waitingCount="0" stopTime="0.00" timeLoss="6.21" rerouteNo="0" devices="tripinfo_L2-CV-11 emissions_L2-CV-11 ssm_L2-CV-11 toc_L2-CV-11 driverstateL2-CV-11" vType="L2-CV-28" speedFactor="1.04" vaporized="">
        <emissions CO_abs="1715.177588" CO2_abs="224228.749850" HC_abs="10.332681" PMx_abs="2.867140" NOx_abs="78.847582" fuel_abs="96.386626" electricity_abs="0"/>
    </tripinfo>
    <tripinfo id="L0-HDV-27" depart="178.10" departLane="left-long-approaching_0" departPos="5.10" departSpeed="0.00" departDelay="0.05" arrival="282.60" arrivalLane="top-exit_1" arrivalPos="486.40" arrivalSpeed="19.42" duration="104.50" routeLength="992.31" waitingTime="44.10" waitingCount="1" stopTime="0.00" timeLoss="52.53" rerouteNo="0" devices="tripinfo_L0-HDV-27 emissions_L0-HDV-27 ssm_L0-HDV-27" vType="L0-HDV-Left-1" speedFactor="1.17" vaporized="">
        <emissions CO_abs="9782.389243" CO2_abs="313480.607997" HC_abs="51.318098" PMx_abs="6.567642" NOx_abs="131.710070" fuel_abs="134.754770" electricity_abs="0"/>
    </tripinfo>
    <tripinfo id="L0-HDV-15" depart="153.10" departLane="left-long-approaching_0" departPos="5.10" departSpeed="0.00" departDelay="0.85" arrival="286.80" arrivalLane="bottom-exit_1" arrivalPos="486.40" arrivalSpeed="19.19" duration="133.70" routeLength="979.53" waitingTime="66.10" waitingCount="1" stopTime="0.00" timeLoss="81.83" rerouteNo="0" devices="tripinfo_L0-HDV-15 emissions_L0-HDV-15 ssm_L0-HDV-15" vType="L0-HDV-1" speedFactor="1.15" vaporized="">
        <emissions CO_abs="13566.469991" CO2_abs="376408.633625" HC_abs="69.917681" PMx_abs="7.810000" NOx_abs="158.704029" fuel_abs="161.806995" electricity_abs="0"/>
    </tripinfo>
    <tripinfo id="L0-HDV-14" depart="150.10" departLane="left-long-approaching_0" departPos="5.10" departSpeed="0.00" departDelay="0.00" arrival="286.90" arrivalLane="bottom-exit_0" arrivalPos="486.40" arrivalSpeed="17.69" duration="136.80" routeLength="979.53" waitingTime="66.80" waitingCount="1" stopTime="0.00" timeLoss="80.73" rerouteNo="0" devices="tripinfo_L0-HDV-14 emissions_L0-HDV-14 ssm_L0-HDV-14" vType="L0-HDV-4" speedFactor="1.06" vaporized="">
        <emissions CO_abs="14285.107661" CO2_abs="413641.346749" HC_abs="74.683675" PMx_abs="8.693896" NOx_abs="175.972221" fuel_abs="177.811575" electricity_abs="0"/>
    </tripinfo>
    <tripinfo id="L0-HDV-11" depart="143.70" departLane="left-long-approaching_0" departPos="5.10" departSpeed="0.00" departDelay="0.05" arrival="288.80" arrivalLane="right-exit_0" arrivalPos="486.40" arrivalSpeed="16.35" duration="145.10" routeLength="995.23" waitingTime="73.40" waitingCount="1" stopTime="0.00" timeLoss="84.18" rerouteNo="0" devices="tripinfo_L0-HDV-11 emissions_L0-HDV-11 ssm_L0-HDV-11" vType="L0-HDV-Straight-31" speedFactor="0.98" vaporized="">
        <emissions CO_abs="14389.031275" CO2_abs="374290.816758" HC_abs="73.630593" PMx_abs="7.735526" NOx_abs="158.461211" fuel_abs="160.897346" electricity_abs="0"/>
    </tripinfo>
    <tripinfo id="L0-HDV-9" depart="141.70" departLane="right-approaching_0" departPos="5.10" departSpeed="0.00" departDelay="2.35" arrival="291.20" arrivalLane="top-exit_0" arrivalPos="486.40" arrivalSpeed="17.59" duration="149.50" routeLength="979.43" waitingTime="71.80" waitingCount="1" stopTime="0.00" timeLoss="92.92" rerouteNo="0" devices="tripinfo_L0-HDV-9 emissions_L0-HDV-9 ssm_L0-HDV-9" vType="L0-HDV-38" speedFactor="1.06" vaporized="">
        <emissions CO_abs="15319.905072" CO2_abs="417907.314571" HC_abs="79.305946" PMx_abs="8.467561" NOx_abs="175.963064" fuel_abs="179.646584" electricity_abs="0"/>
    </tripinfo>
    <tripinfo id="L2-CV-4" depart="155.40" departLane="left-long-approaching_0" departPos="5.10" departSpeed="0.00" departDelay="1.80" arrival="291.90" arrivalLane="bottom-exit_0" arrivalPos="486.40" arrivalSpeed="16.76" duration="136.50" routeLength="979.53" waitingTime="59.60" waitingCount="1" stopTime="0.00" timeLoss="77.18" rerouteNo="0" devices="tripinfo_L2-CV-4 emissions_L2-CV-4 ssm_L2-CV-4 toc_L2-CV-4 driverstateL2-CV-4" vType="L2-CV-Right-38" speedFactor="1.01" vaporized="">
        <emissions CO_abs="10646.998190" CO2_abs="375885.077269" HC_abs="55.021306" PMx_abs="6.573945" NOx_abs="148.568948" fuel_abs="161.581249" electricity_abs="0"/>
    </tripinfo>
    <tripinfo id="L0-HDV-23" depart="170.50" departLane="right-approaching_0" departPos="5.10" departSpeed="0.00" departDelay="1.05" arrival="292.40" arrivalLane="top-exit_1" arrivalPos="486.40" arrivalSpeed="21.17" duration="121.90" routeLength="979.43" waitingTime="48.20" waitingCount="1" stopTime="0.00" timeLoss="74.88" rerouteNo="0" devices="tripinfo_L0-HDV-23 emissions_L0-HDV-23 ssm_L0-HDV-23" vType="L0-HDV-95" speedFactor="1.27" vaporized="">
        <emissions CO_abs="12090.098087" CO2_abs="388883.878655" HC_abs="64.097011" PMx_abs="7.907486" NOx_abs="162.901214" fuel_abs="167.168450" electricity_abs="0"/>
    </tripinfo>
    <tripinfo id="L0-HDV-46" depart="218.90" departLane="left-long-approaching_0" departPos="5.10" departSpeed="0.00" departDelay="0.00" arrival="292.80" arrivalLane="bottom-exit_0" arrivalPos="486.40" arrivalSpeed="16.99" duration="73.90" routeLength="979.53" waitingTime="3.00" waitingCount="1" stopTime="0.00" timeLoss="15.35" rerouteNo="0" devices="tripinfo_L0-HDV-46 emissions_L0-HDV-46 ssm_L0-HDV-46" vType="L0-HDV-11" speedFactor="1.02" vaporized="">
        <emissions CO_abs="3118.355144" CO2_abs="197727.105394" HC_abs="18.235496" PMx_abs="3.373461" NOx_abs="77.845835" fuel_abs="84.994788" electricity_abs="0"/>
    </tripinfo>
    <tripinfo id="L2-AV-11" depart="212.40" departLane="left-long-approaching_0" departPos="5.10" departSpeed="0.00" departDelay="0.00" arrival="293.50" arrivalLane="right-exit_0" arrivalPos="486.40" arrivalSpeed="17.21" duration="81.10" routeLength="995.23" waitingTime="0.10" waitingCount="1" stopTime="0.00" timeLoss="23.15" rerouteNo="0" devices="tripinfo_L2-AV-11 emissions_L2-AV-11 ssm_L2-AV-11 toc_L2-AV-11 driverstateL2-AV-11" vType="L2-AV-94" speedFactor="1.03" vaporized="">
        <emissions CO_abs="2883.708327" CO2_abs="248577.948030" HC_abs="17.002847" PMx_abs="3.401816" NOx_abs="90.991681" fuel_abs="106.853820" electricity_abs="0"/>
    </tripinfo>
    <tripinfo id="L2-CV-12" depart="221.20" departLane="left-long-approaching_0" departPos="5.10" departSpeed="0.00" departDelay="0.40" arrival="294.60" arrivalLane="bottom-exit_0" arrivalPos="486.40" arrivalSpeed="18.14" duration="73.40" routeLength="979.53" waitingTime="0.00" waitingCount="0" stopTime="0.00" timeLoss="18.45" rerouteNo="0" devices="tripinfo_L2-CV-12 emissions_L2-CV-12 ssm_L2-CV-12 toc_L2-CV-12 driverstateL2-CV-12" vType="L2-CV-Right-14" speedFactor="1.09" vaporized="">
        <emissions CO_abs="3056.367205" CO2_abs="256080.982405" HC_abs="18.603305" PMx_abs="3.851491" NOx_abs="95.765579" fuel_abs="110.078766" electricity_abs="0"/>
    </tripinfo>
    <tripinfo id="L0-HDV-10" depart="145.70" departLane="right-approaching_0" departPos="5.10" departSpeed="0.00" departDelay="4.20" arrival="295.60" arrivalLane="top-exit_0" arrivalPos="486.40" arrivalSpeed="14.60" duration="149.90" routeLength="979.43" waitingTime="69.80" waitingCount="1" stopTime="0.00" timeLoss="82.24" rerouteNo="0" devices="tripinfo_L0-HDV-10 emissions_L0-HDV-10 ssm_L0-HDV-10" vType="L0-HDV-29" speedFactor="0.88" vaporized="">
        <emissions CO_abs="14595.970554" CO2_abs="392466.463405" HC_abs="75.524154" PMx_abs="8.091018" NOx_abs="167.047642" fuel_abs="168.710168" electricity_abs="0"/>
    </tripinfo>
    <tripinfo id="L4-CV-2" depart="174.30" departLane="right-approaching_0" departPos="5.10" departSpeed="0.00" departDelay="2.30" arrival="297.40" arrivalLane="top-exit_0" arrivalPos="486.40" arrivalSpeed="16.26" duration="123.10" routeLength="979.43" waitingTime="40.20" waitingCount="1" stopTime="0.00" timeLoss="62.06" rerouteNo="0" devices="tripinfo_L4-CV-2 emissions_L4-CV-2 ssm_L4-CV-2 toc_L4-CV-2 driverstateL4-CV-2" vType="L4-CV-89" speedFactor="0.98" vaporized="">
        <emissions CO_abs="8211.961883" CO2_abs="331326.886548" HC_abs="42.723827" PMx_abs="5.444576" NOx_abs="128.912316" fuel_abs="142.426511" electricity_abs="0"/>
    </tripinfo>
    <tripinfo id="L0-HDV-31" depart="188.40" departLane="right-approaching_0" departPos="5.10" departSpeed="0.00" departDelay="1.75" arrival="302.50" arrivalLane="top-exit_0" arrivalPos="486.40" arrivalSpeed="14.97" duration="114.10" routeLength="979.43" waitingTime="28.10" waitingCount="1" stopTime="0.00" timeLoss="47.58" rerouteNo="0" devices="tripinfo_L0-HDV-31 emissions_L0-HDV-31 ssm_L0-HDV-31" vType="L0-HDV-68" speedFactor="0.90" vaporized="">
        <emissions CO_abs="7735.918962" CO2_abs="258800.926523" HC_abs="40.415259" PMx_abs="4.614113" NOx_abs="104.838716" fuel_abs="111.250575" electricity_abs="0"/>
    </tripinfo>
    <tripinfo id="L2-AV-9" depart="195.60" departLane="right-approaching_0" departPos="5.10" departSpeed="0.00" departDelay="0.00" arrival="303.00" arrivalLane="top-exit_1" arrivalPos="486.40" arrivalSpeed="17.60" duration="107.40" routeLength="979.43" waitingTime="22.40" waitingCount="2" stopTime="0.00" timeLoss="50.82" rerouteNo="0" devices="tripinfo_L2-AV-9 emissions_L2-AV-9 ssm_L2-AV-9 toc_L2-AV-9 driverstateL2-AV-9" vType="L2-AV-19" speedFactor="1.06" vaporized="">
        <emissions CO_abs="6999.260350" CO2_abs="282197.293707" HC_abs="37.196117" PMx_abs="4.796426" NOx_abs="111.249453" fuel_abs="121.307179" electricity_abs="0"/>
    </tripinfo>
    <tripinfo id="L2-CV-7" depart="178.80" departLane="right-approaching_0" departPos="5.10" departSpeed="0.00" departDelay="0.00" arrival="303.60" arrivalLane="bottom-exit_1" arrivalPos="486.40" arrivalSpeed="19.66" duration="124.80" routeLength="992.21" waitingTime="44.10" waitingCount="3" stopTime="0.00" timeLoss="73.60" rerouteNo="0" devices="tripinfo_L2-CV-7 emissions_L2-CV-7 ssm_L2-CV-7 toc_L2-CV-7 driverstateL2-CV-7" vType="L2-CV-42" speedFactor="1.18" vaporized="">
        <emissions CO_abs="9158.269421" CO2_abs="368232.721666" HC_abs="49.136490" PMx_abs="6.833342" NOx_abs="146.631751" fuel_abs="158.290375" electricity_abs="0"/>
    </tripinfo>
    <tripinfo id="L0-HDV-22" depart="167.30" departLane="right-approaching_0" departPos="5.10" departSpeed="0.00" departDelay="0.00" arrival="303.60" arrivalLane="bottom-exit_0" arrivalPos="486.40" arrivalSpeed="14.87" duration="136.30" routeLength="992.21" waitingTime="52.30" waitingCount="2" stopTime="0.00" timeLoss="68.68" rerouteNo="0" devices="tripinfo_L0-HDV-22 emissions_L0-HDV-22 ssm_L0-HDV-22" vType="L0-HDV-40" speedFactor="0.90" vaporized="">
        <emissions CO_abs="11824.439474" CO2_abs="349671.951667" HC_abs="61.877316" PMx_abs="6.874734" NOx_abs="146.372012" fuel_abs="150.313554" electricity_abs="0"/>
    </tripinfo>
    <tripinfo id="L0-HDV-36" depart="198.40" departLane="right-approaching_0" departPos="5.10" departSpeed="0.00" departDelay="1.00" arrival="304.00" arrivalLane="top-exit_1" arrivalPos="486.40" arrivalSpeed="18.90" duration="105.60" routeLength="979.43" waitingTime="21.60" waitingCount="1" stopTime="0.00" timeLoss="56.80" rerouteNo="0" devices="tripinfo_L0-HDV-36 emissions_L0-HDV-36 ssm_L0-HDV-36" vType="L0-HDV-8" speedFactor="1.23" vaporized="">
        <emissions CO_abs="8051.356603" CO2_abs="304188.316223" HC_abs="43.732532" PMx_abs="5.954225" NOx_abs="126.632473" fuel_abs="130.759679" electricity_abs="0"/>
    </tripinfo>
    <tripinfo id="L2-CV-8" depart="191.90" departLane="right-approaching_0" departPos="5.10" departSpeed="0.00" departDelay="4.70" arrival="304.50" arrivalLane="top-exit_0" arrivalPos="486.40" arrivalSpeed="15.01" duration="112.60" routeLength="979.43" waitingTime="22.20" waitingCount="2" stopTime="0.00" timeLoss="46.51" rerouteNo="0" devices="tripinfo_L2-CV-8 emissions_L2-CV-8 ssm_L2-CV-8 toc_L2-CV-8 driverstateL2-CV-8" vType="L2-CV-57" speedFactor="0.90" vaporized="">
        <emissions CO_abs="5301.822690" CO2_abs="284257.873815" HC_abs="28.664918" PMx_abs="3.952633" NOx_abs="105.948017" fuel_abs="122.192707" electricity_abs="0"/>
    </tripinfo>
    <tripinfo id="L2-AV-14" depart="237.60" departLane="left-long-approaching_0" departPos="5.10" departSpeed="0.00" departDelay="0.00" arrival="305.10" arrivalLane="bottom-exit_1" arrivalPos="486.40" arrivalSpeed="17.24" duration="67.50" routeLength="979.53" waitingTime="0.00" waitingCount="0" stopTime="0.00" timeLoss="9.74" rerouteNo="0" devices="tripinfo_L2-AV-14 emissions_L2-AV-14 ssm_L2-AV-14 toc_L2-AV-14 driverstateL2-AV-14" vType="L2-AV-Right-74" speedFactor="1.03" vaporized="">
        <emissions CO_abs="1899.741232" CO2_abs="189405.965069" HC_abs="12.010567" PMx_abs="2.791274" NOx_abs="70.822768" fuel_abs="81.417617" electricity_abs="0"/>
    </tripinfo>
    <tripinfo id="L0-HDV-29" depart="182.40" departLane="right-approaching_0" departPos="5.10" departSpeed="0.00" departDelay="0.05" arrival="309.10" arrivalLane="bottom-exit_0" arrivalPos="486.40" arrivalSpeed="16.07" duration="126.70" routeLength="992.21" waitingTime="43.60" waitingCount="3" stopTime="0.00" timeLoss="63.99" rerouteNo="0" devices="tripinfo_L0-HDV-29 emissions_L0-HDV-29 ssm_L0-HDV-29" vType="L0-HDV-89" speedFactor="0.96" vaporized="">
        <emissions CO_abs="8343.404202" CO2_abs="271794.373163" HC_abs="43.287267" PMx_abs="5.168949" NOx_abs="111.639324" fuel_abs="116.835768" electricity_abs="0"/>
    </tripinfo>
    <tripinfo id="L2-AV-10" depart="208.50" departLane="right-approaching_0" departPos="5.10" departSpeed="0.00" departDelay="4.50" arrival="309.40" arrivalLane="top-exit_0" arrivalPos="486.40" arrivalSpeed="16.42" duration="100.90" routeLength="979.43" waitingTime="0.00" waitingCount="0" stopTime="0.00" timeLoss="40.24" rerouteNo="0" devices="tripinfo_L2-AV-10 emissions_L2-AV-10 ssm_L2-AV-10 toc_L2-AV-10 driverstateL2-AV-10" vType="L2-AV-85" speedFactor="0.98" vaporized="">
        <emissions CO_abs="3776.931054" CO2_abs="261995.872337" HC_abs="21.353552" PMx_abs="3.631392" NOx_abs="97.260874" fuel_abs="112.622125" electricity_abs="0"/>
    </tripinfo>
    <tripinfo id="L2-AV-7" depart="181.70" departLane="right-approaching_0" departPos="5.10" departSpeed="0.00" departDelay="2.90" arrival="310.50" arrivalLane="bottom-exit_0" arrivalPos="486.40" arrivalSpeed="16.22" duration="128.80" routeLength="992.21" waitingTime="36.80" waitingCount="3" stopTime="0.00" timeLoss="66.66" rerouteNo="0" devices="tripinfo_L2-AV-7 emissions_L2-AV-7 ssm_L2-AV-7 toc_L2-AV-7 driverstateL2-AV-7" vType="L2-AV-11" speedFactor="0.97" vaporized="">
        <emissions CO_abs="4030.058804" CO2_abs="249640.749854" HC_abs="22.209803" PMx_abs="3.815729" NOx_abs="94.767596" fuel_abs="107.310945" electricity_abs="0"/>
    </tripinfo>