<?xml version="1.0" encoding="UTF-8"?>

<!-- generated on 03/24/21 19:42:23 by Eclipse SUMO GUI Version 1.8.0
<configuration xmlns:xsi="http://www.w3.org/2001/XMLSchema-instance" xsi:noNamespaceSchemaLocation="http://sumo.dlr.de/xsd/sumoConfiguration.xsd">

    <input>
        <net-file value="Collision\BaselinePenetration1\../CollisionIntersection.net.xml"/>
        <route-files value="Collision\BaselinePenetration1\../CrashedVehicleRoutes.rou.xml,Collision\BaselinePenetration1\Route-Files/L4-CV-Route.rou.xml,Collision\BaselinePenetration1\Route-Files/L4-AV-Route.rou.xml,Collision\BaselinePenetration1\Route-Files/L2-CV-Route.rou.xml,Collision\BaselinePenetration1\Route-Files/L2-AV-Route.rou.xml,Collision\BaselinePenetration1\Route-Files/L0-HDV-Route.rou.xml"/>
        <additional-files value="Collision\BaselinePenetration1\../Additional-Files/Collision-Detectors.add.xml,Collision\BaselinePenetration1\../Additional-Files/Collision-TMS-Rerouters.add.xml,Collision\BaselinePenetration1\PreparingVehicleModels/Vehicle-Models/L4-CV.add.xml,Collision\BaselinePenetration1\PreparingVehicleModels/Vehicle-Models/L4-CV-Left.add.xml,Collision\BaselinePenetration1\PreparingVehicleModels/Vehicle-Models/L4-CV-Right.add.xml,Collision\BaselinePenetration1\PreparingVehicleModels/Vehicle-Models/L4-AV.add.xml,Collision\BaselinePenetration1\PreparingVehicleModels/Vehicle-Models/L4-AV-Left.add.xml,Collision\BaselinePenetration1\PreparingVehicleModels/Vehicle-Models/L4-AV-Right.add.xml,Collision\BaselinePenetration1\PreparingVehicleModels/Vehicle-Models/L2-CV.add.xml,Collision\BaselinePenetration1\PreparingVehicleModels/Vehicle-Models/L2-CV-Left.add.xml,Collision\BaselinePenetration1\PreparingVehicleModels/Vehicle-Models/L2-CV-Right.add.xml,Collision\BaselinePenetration1\PreparingVehicleModels/Vehicle-Models/L2-AV.add.xml,Collision\BaselinePenetration1\PreparingVehicleModels/Vehicle-Models/L2-AV-Left.add.xml,Collision\BaselinePenetration1\PreparingVehicleModels/Vehicle-Models/L2-AV-Right.add.xml,Collision\BaselinePenetration1\PreparingVehicleModels/Vehicle-Models/L0-HDV.add.xml,Collision\BaselinePenetration1\PreparingVehicleModels/Vehicle-Models/L0-HDV-Left.add.xml,Collision\BaselinePenetration1\PreparingVehicleModels/Vehicle-Models/L0-HDV-Straight.add.xml,Collision\BaselinePenetration1\../Additional-Files/Collision-Traffic-lights.add.xml,Collision\BaselinePenetration1\../Additional-Files/Collision-Traffic-Signs.add.xml"/>
    </input>

    <output>
        <tripinfo-output value="Collision\BaselinePenetration1\Output-Files\TripInfo.xml"/>
    </output>

    <time>
        <begin value="0"/>
        <step-length value="0.1"/>
    </time>

    <processing>
        <ignore-route-errors value="true"/>
        <waiting-time-memory value="300"/>
        <default.action-step-length value="0.1"/>
    </processing>

    <report>
        <no-warnings value="true"/>
    </report>

    <emissions>
        <device.emissions.probability value="1"/>
    </emissions>

    <traci_server>
        <remote-port value="51773"/>
    </traci_server>

    <gui_only>
        <quit-on-end value="true"/>
        <start value="true"/>
        <tracker-interval value="0.1"/>
    </gui_only>

</configuration>
-->

<tripinfos xmlns:xsi="http://www.w3.org/2001/XMLSchema-instance" xsi:noNamespaceSchemaLocation="http://sumo.dlr.de/xsd/tripinfo_file.xsd">
    <tripinfo id="L4-CV-1" depart="123.00" departLane="right-approaching_0" departPos="5.10" departSpeed="0.00" departDelay="0.00" arrival="188.90" arrivalLane="bottom-exit_1" arrivalPos="486.40" arrivalSpeed="18.72" duration="65.90" routeLength="992.21" waitingTime="0.00" waitingCount="0" stopTime="0.00" timeLoss="12.01" rerouteNo="0" devices="tripinfo_L4-CV-1 emissions_L4-CV-1 ssm_L4-CV-1 toc_L4-CV-1 driverstateL4-CV-1" vType="L4-CV-15" speedFactor="1.12" vaporized="">
        <emissions CO_abs="2572.298309" CO2_abs="254061.028321" HC_abs="15.560097" PMx_abs="3.773826" NOx_abs="93.242774" fuel_abs="109.210144" electricity_abs="0"/>
    </tripinfo>
    <tripinfo id="L4-AV-1" depart="132.00" departLane="right-approaching_0" departPos="5.10" departSpeed="0.00" departDelay="0.00" arrival="208.10" arrivalLane="bottom-exit_0" arrivalPos="486.40" arrivalSpeed="15.11" duration="76.10" routeLength="992.21" waitingTime="0.10" waitingCount="1" stopTime="0.00" timeLoss="9.38" rerouteNo="0" devices="tripinfo_L4-AV-1 emissions_L4-AV-1 ssm_L4-AV-1 toc_L4-AV-1 driverstateL4-AV-1" vType="L4-AV-3" speedFactor="0.91" vaporized="">
        <emissions CO_abs="1955.058587" CO2_abs="225880.235859" HC_abs="11.711277" PMx_abs="2.465179" NOx_abs="78.493407" fuel_abs="97.097262" electricity_abs="0"/>
    </tripinfo>
    <tripinfo id="L4-CV-2" depart="126.50" departLane="right-approaching_0" departPos="5.10" departSpeed="0.00" departDelay="0.50" arrival="228.50" arrivalLane="left-exit_0" arrivalPos="820.00" arrivalSpeed="16.52" duration="102.00" routeLength="1395.12" waitingTime="0.80" waitingCount="1" stopTime="0.00" timeLoss="17.49" rerouteNo="0" devices="tripinfo_L4-CV-2 emissions_L4-CV-2 ssm_L4-CV-2 toc_L4-CV-2 driverstateL4-CV-2" vType="L4-CV-12@L4-CV-2" speedFactor="0.99" vaporized="">
        <emissions CO_abs="3005.466234" CO2_abs="314434.970504" HC_abs="17.090205" PMx_abs="3.818359" NOx_abs="110.189219" fuel_abs="135.163244" electricity_abs="0"/>
    </tripinfo>
    <tripinfo id="L2-CV-0" depart="120.00" departLane="bottom-approaching_0" departPos="5.10" departSpeed="0.00" departDelay="0.00" arrival="236.60" arrivalLane="top-exit_0" arrivalPos="486.40" arrivalSpeed="20.01" duration="116.60" routeLength="994.90" waitingTime="43.90" waitingCount="1" stopTime="0.00" timeLoss="66.82" rerouteNo="0" devices="tripinfo_L2-CV-0 emissions_L2-CV-0 ssm_L2-CV-0 toc_L2-CV-0 driverstateL2-CV-0" vType="L2-CV-0" speedFactor="1.20" vaporized="">
        <emissions CO_abs="10896.280164" CO2_abs="399021.723080" HC_abs="57.781339" PMx_abs="7.480755" NOx_abs="160.267505" fuel_abs="171.526140" electricity_abs="0"/>
    </tripinfo>
    <tripinfo id="L2-AV-0" depart="123.90" departLane="bottom-approaching_0" departPos="5.10" departSpeed="0.00" departDelay="3.90" arrival="237.30" arrivalLane="right-exit_0" arrivalPos="486.40" arrivalSpeed="16.59" duration="113.40" routeLength="979.43" waitingTime="38.80" waitingCount="1" stopTime="0.00" timeLoss="53.42" rerouteNo="0" devices="tripinfo_L2-AV-0 emissions_L2-AV-0 ssm_L2-AV-0 toc_L2-AV-0 driverstateL2-AV-0" vType="L2-AV-56" speedFactor="1.00" vaporized="">
        <emissions CO_abs="9084.559003" CO2_abs="345388.281183" HC_abs="46.814497" PMx_abs="5.820505" NOx_abs="134.945505" fuel_abs="148.471276" electricity_abs="0"/>
    </tripinfo>
    <tripinfo id="L2-CV-3" depart="157.10" departLane="top-approaching_0" departPos="5.10" departSpeed="0.00" departDelay="1.10" arrival="237.50" arrivalLane="bottom-exit_1" arrivalPos="486.40" arrivalSpeed="17.21" duration="80.40" routeLength="994.90" waitingTime="2.40" waitingCount="24" stopTime="0.00" timeLoss="22.47" rerouteNo="0" devices="tripinfo_L2-CV-3 emissions_L2-CV-3 ssm_L2-CV-3 toc_L2-CV-3 driverstateL2-CV-3" vType="L2-CV-38" speedFactor="1.03" vaporized="">
        <emissions CO_abs="3408.959433" CO2_abs="264185.029657" HC_abs="19.397067" PMx_abs="3.773455" NOx_abs="97.261079" fuel_abs="113.562737" electricity_abs="0"/>
    </tripinfo>
    <tripinfo id="L4-CV-10" depart="150.00" departLane="top-approaching_0" departPos="5.10" departSpeed="0.00" departDelay="0.00" arrival="242.20" arrivalLane="bottom-exit_0" arrivalPos="486.40" arrivalSpeed="13.76" duration="92.20" routeLength="994.90" waitingTime="9.10" waitingCount="1" stopTime="0.00" timeLoss="19.79" rerouteNo="0" devices="tripinfo_L4-CV-10 emissions_L4-CV-10 ssm_L4-CV-10 toc_L4-CV-10 driverstateL4-CV-10" vType="L4-CV-2" speedFactor="0.83" vaporized="">
        <emissions CO_abs="3392.031819" CO2_abs="249710.637765" HC_abs="19.587664" PMx_abs="2.991051" NOx_abs="89.825803" fuel_abs="107.341744" electricity_abs="0"/>
    </tripinfo>
    <tripinfo id="L4-CV-3" depart="129.00" departLane="bottom-approaching_0" departPos="5.10" departSpeed="0.00" departDelay="0.00" arrival="243.60" arrivalLane="right-exit_0" arrivalPos="486.40" arrivalSpeed="14.64" duration="114.60" routeLength="979.43" waitingTime="26.00" waitingCount="2" stopTime="0.00" timeLoss="46.71" rerouteNo="0" devices="tripinfo_L4-CV-3 emissions_L4-CV-3 ssm_L4-CV-3 toc_L4-CV-3 driverstateL4-CV-3" vType="L4-CV-22" speedFactor="0.88" vaporized="">
        <emissions CO_abs="5574.422752" CO2_abs="286213.190009" HC_abs="30.120454" PMx_abs="3.983293" NOx_abs="106.918169" fuel_abs="123.033441" electricity_abs="0"/>
    </tripinfo>
    <tripinfo id="L4-AV-3" depart="156.00" departLane="bottom-approaching_0" departPos="5.10" departSpeed="0.00" departDelay="0.00" arrival="244.10" arrivalLane="right-exit_1" arrivalPos="486.40" arrivalSpeed="17.75" duration="88.10" routeLength="979.43" waitingTime="0.00" waitingCount="0" stopTime="0.00" timeLoss="31.99" rerouteNo="0" devices="tripinfo_L4-AV-3 emissions_L4-AV-3 ssm_L4-AV-3 toc_L4-AV-3 driverstateL4-AV-3" vType="L4-AV-47" speedFactor="1.07" vaporized="">
        <emissions CO_abs="2929.218154" CO2_abs="241884.553395" HC_abs="17.209767" PMx_abs="3.511862" NOx_abs="89.888171" fuel_abs="103.976403" electricity_abs="0"/>
    </tripinfo>
    <tripinfo id="L2-CV-1" depart="136.90" departLane="bottom-approaching_0" departPos="5.10" departSpeed="0.00" departDelay="4.90" arrival="244.80" arrivalLane="right-exit_0" arrivalPos="486.40" arrivalSpeed="16.54" duration="107.90" routeLength="979.43" waitingTime="23.30" waitingCount="25" stopTime="0.00" timeLoss="50.18" rerouteNo="0" devices="tripinfo_L2-CV-1 emissions_L2-CV-1 ssm_L2-CV-1 toc_L2-CV-1 driverstateL2-CV-1" vType="L2-CV-70" speedFactor="1.03" vaporized="">
        <emissions CO_abs="5549.117587" CO2_abs="250642.538771" HC_abs="30.165964" PMx_abs="4.232070" NOx_abs="98.791902" fuel_abs="107.742329" electricity_abs="0"/>
    </tripinfo>
    <tripinfo id="L4-CV-21" depart="183.00" departLane="top-approaching_0" departPos="5.10" departSpeed="0.00" departDelay="0.00" arrival="245.80" arrivalLane="right-exit_1" arrivalPos="486.40" arrivalSpeed="19.66" duration="62.80" routeLength="992.21" waitingTime="0.00" waitingCount="0" stopTime="0.00" timeLoss="11.54" rerouteNo="0" devices="tripinfo_L4-CV-21 emissions_L4-CV-21 ssm_L4-CV-21 toc_L4-CV-21 driverstateL4-CV-21" vType="L4-CV-42" speedFactor="1.18" vaporized="">
        <emissions CO_abs="2757.676043" CO2_abs="249323.617512" HC_abs="17.042484" PMx_abs="4.146966" NOx_abs="94.692499" fuel_abs="107.173339" electricity_abs="0"/>
    </tripinfo>
    <tripinfo id="L4-CV-14" depart="162.00" departLane="bottom-approaching_0" departPos="5.10" departSpeed="0.00" departDelay="0.00" arrival="246.30" arrivalLane="right-exit_0" arrivalPos="486.40" arrivalSpeed="17.74" duration="84.30" routeLength="979.43" waitingTime="0.00" waitingCount="0" stopTime="0.00" timeLoss="31.52" rerouteNo="0" devices="tripinfo_L4-CV-14 emissions_L4-CV-14 ssm_L4-CV-14 toc_L4-CV-14 driverstateL4-CV-14" vType="L4-CV-7" speedFactor="1.13" vaporized="">
        <emissions CO_abs="3501.656714" CO2_abs="261518.345311" HC_abs="21.423211" PMx_abs="4.244079" NOx_abs="100.594983" fuel_abs="112.415959" electricity_abs="0"/>
    </tripinfo>
    <tripinfo id="L0-HDV-2" depart="192.00" departLane="top-approaching_0" departPos="5.10" departSpeed="0.00" departDelay="0.00" arrival="258.40" arrivalLane="right-exit_0" arrivalPos="486.40" arrivalSpeed="17.26" duration="66.40" routeLength="992.21" waitingTime="0.00" waitingCount="0" stopTime="0.00" timeLoss="8.26" rerouteNo="0" devices="tripinfo_L0-HDV-2 emissions_L0-HDV-2 ssm_L0-HDV-2" vType="L0-HDV-32" speedFactor="1.04" vaporized="">
        <emissions CO_abs="2846.125390" CO2_abs="230899.234196" HC_abs="18.323291" PMx_abs="4.078793" NOx_abs="91.967659" fuel_abs="99.253332" electricity_abs="0"/>
    </tripinfo>
    <tripinfo id="L4-CV-29" depart="207.00" departLane="top-approaching_0" departPos="5.10" departSpeed="0.00" departDelay="0.00" arrival="275.10" arrivalLane="right-exit_0" arrivalPos="486.40" arrivalSpeed="16.95" duration="68.10" routeLength="992.21" waitingTime="0.00" waitingCount="0" stopTime="0.00" timeLoss="8.55" rerouteNo="0" devices="tripinfo_L4-CV-29 emissions_L4-CV-29 ssm_L4-CV-29 toc_L4-CV-29 driverstateL4-CV-29" vType="L4-CV-59" speedFactor="1.02" vaporized="">
        <emissions CO_abs="1808.935122" CO2_abs="228887.691407" HC_abs="11.285611" PMx_abs="2.834350" NOx_abs="80.430610" fuel_abs="98.389540" electricity_abs="0"/>
    </tripinfo>
    <tripinfo id="L2-AV-1" depart="156.00" departLane="left-long-approaching_0" departPos="5.10" departSpeed="0.00" departDelay="0.00" arrival="286.40" arrivalLane="right-exit_0" arrivalPos="486.40" arrivalSpeed="16.12" duration="130.40" routeLength="1395.23" waitingTime="30.00" waitingCount="1" stopTime="0.00" timeLoss="43.71" rerouteNo="0" devices="tripinfo_L2-AV-1 emissions_L2-AV-1 ssm_L2-AV-1 toc_L2-AV-1 driverstateL2-AV-1" vType="L2-AV-99" speedFactor="0.97" vaporized="">
        <emissions CO_abs="7354.067745" CO2_abs="383243.925589" HC_abs="38.411175" PMx_abs="5.454274" NOx_abs="141.230965" fuel_abs="164.743419" electricity_abs="0"/>
    </tripinfo>
    <tripinfo id="L4-CV-0" depart="120.00" departLane="left-long-approaching_0" departPos="5.10" departSpeed="0.00" departDelay="0.00" arrival="286.60" arrivalLane="bottom-exit_0" arrivalPos="486.40" arrivalSpeed="16.26" duration="166.60" routeLength="1379.53" waitingTime="64.80" waitingCount="1" stopTime="0.00" timeLoss="80.79" rerouteNo="0" devices="tripinfo_L4-CV-0 emissions_L4-CV-0 ssm_L4-CV-0 toc_L4-CV-0 driverstateL4-CV-0" vType="L4-CV-Right-89" speedFactor="0.98" vaporized="">
        <emissions CO_abs="13482.822034" CO2_abs="478139.527316" HC_abs="68.505789" PMx_abs="7.888984" NOx_abs="185.290181" fuel_abs="205.537769" electricity_abs="0"/>
    </tripinfo>
    <tripinfo id="L4-CV-8" depart="144.00" departLane="right-approaching_0" departPos="5.10" departSpeed="0.00" departDelay="0.00" arrival="287.10" arrivalLane="top-exit_0" arrivalPos="486.40" arrivalSpeed="16.25" duration="143.10" routeLength="979.43" waitingTime="64.20" waitingCount="1" stopTime="0.00" timeLoss="81.86" rerouteNo="0" devices="tripinfo_L4-CV-8 emissions_L4-CV-8 ssm_L4-CV-8 toc_L4-CV-8 driverstateL4-CV-8" vType="L4-CV-30" speedFactor="0.98" vaporized="">
        <emissions CO_abs="13480.891275" CO2_abs="412643.131234" HC_abs="68.558804" PMx_abs="7.463051" NOx_abs="165.992120" fuel_abs="177.383417" electricity_abs="0"/>
    </tripinfo>
    <tripinfo id="L4-CV-19" depart="177.00" departLane="left-long-approaching_0" departPos="5.10" departSpeed="0.00" departDelay="0.00" arrival="288.30" arrivalLane="right-exit_1" arrivalPos="486.40" arrivalSpeed="17.00" duration="111.30" routeLength="1395.23" waitingTime="5.80" waitingCount="1" stopTime="0.00" timeLoss="29.15" rerouteNo="0" devices="tripinfo_L4-CV-19 emissions_L4-CV-19 ssm_L4-CV-19 toc_L4-CV-19 driverstateL4-CV-19" vType="L4-CV-30" speedFactor="1.02" vaporized="">
        <emissions CO_abs="3471.853796" CO2_abs="324789.389350" HC_abs="19.741464" PMx_abs="4.127142" NOx_abs="114.952957" fuel_abs="139.614314" electricity_abs="0"/>
    </tripinfo>
    <tripinfo id="L4-CV-23" depart="189.00" departLane="right-approaching_0" departPos="5.10" departSpeed="0.00" departDelay="0.00" arrival="289.20" arrivalLane="top-exit_0" arrivalPos="486.40" arrivalSpeed="15.96" duration="100.20" routeLength="979.43" waitingTime="19.40" waitingCount="25" stopTime="0.00" timeLoss="37.86" rerouteNo="0" devices="tripinfo_L4-CV-23 emissions_L4-CV-23 ssm_L4-CV-23 toc_L4-CV-23 driverstateL4-CV-23" vType="L4-CV-10" speedFactor="0.96" vaporized="">
        <emissions CO_abs="4683.072142" CO2_abs="279145.152370" HC_abs="25.390738" PMx_abs="3.981453" NOx_abs="103.683821" fuel_abs="119.994347" electricity_abs="0"/>
    </tripinfo>
    <tripinfo id="L4-CV-6" depart="138.00" departLane="left-long-approaching_0" departPos="5.10" departSpeed="0.00" departDelay="0.00" arrival="290.50" arrivalLane="top-exit_1" arrivalPos="486.40" arrivalSpeed="16.97" duration="152.50" routeLength="1392.31" waitingTime="50.20" waitingCount="2" stopTime="0.00" timeLoss="69.53" rerouteNo="0" devices="tripinfo_L4-CV-6 emissions_L4-CV-6 ssm_L4-CV-6 toc_L4-CV-6 driverstateL4-CV-6" vType="L4-CV-Left-59" speedFactor="1.02" vaporized="">
        <emissions CO_abs="11547.016837" CO2_abs="455697.142388" HC_abs="59.283880" PMx_abs="7.399592" NOx_abs="174.746548" fuel_abs="195.889612" electricity_abs="0"/>
    </tripinfo>
    <tripinfo id="L4-CV-16" depart="168.30" departLane="right-approaching_0" departPos="5.10" departSpeed="0.00" departDelay="0.30" arrival="291.70" arrivalLane="bottom-exit_1" arrivalPos="486.40" arrivalSpeed="16.76" duration="123.40" routeLength="992.21" waitingTime="48.10" waitingCount="2" stopTime="0.00" timeLoss="63.24" rerouteNo="0" devices="tripinfo_L4-CV-16 emissions_L4-CV-16 ssm_L4-CV-16 toc_L4-CV-16 driverstateL4-CV-16" vType="L4-CV-38" speedFactor="1.01" vaporized="">
        <emissions CO_abs="10591.463599" CO2_abs="374433.116336" HC_abs="54.503492" PMx_abs="6.568531" NOx_abs="148.116292" fuel_abs="160.957004" electricity_abs="0"/>
    </tripinfo>
    <tripinfo id="L4-AV-0" depart="123.60" departLane="left-long-approaching_0" departPos="5.10" departSpeed="0.00" departDelay="3.60" arrival="292.50" arrivalLane="bottom-exit_0" arrivalPos="486.40" arrivalSpeed="13.99" duration="168.90" routeLength="1379.53" waitingTime="0.00" waitingCount="0" stopTime="0.00" timeLoss="69.11" rerouteNo="0" devices="tripinfo_L4-AV-0 emissions_L4-AV-0 ssm_L4-AV-0 toc_L4-AV-0 driverstateL4-AV-0" vType="L4-AV-Right-74" speedFactor="0.84" vaporized="">
        <emissions CO_abs="2427.620062" CO2_abs="290420.724640" HC_abs="15.206440" PMx_abs="2.896610" NOx_abs="99.707155" fuel_abs="124.841145" electricity_abs="0"/>
    </tripinfo>
    <tripinfo id="L4-AV-8" depart="219.50" departLane="right-approaching_0" departPos="5.10" departSpeed="0.00" departDelay="3.50" arrival="293.30" arrivalLane="top-exit_0" arrivalPos="486.40" arrivalSpeed="16.90" duration="73.80" routeLength="979.43" waitingTime="0.00" waitingCount="0" stopTime="0.00" timeLoss="14.89" rerouteNo="0" devices="tripinfo_L4-AV-8 emissions_L4-AV-8 ssm_L4-AV-8 toc_L4-AV-8 driverstateL4-AV-8" vType="L4-AV-24" speedFactor="1.01" vaporized="">
        <emissions CO_abs="2619.140794" CO2_abs="252514.236728" HC_abs="15.591159" PMx_abs="3.457616" NOx_abs="92.326342" fuel_abs="108.545564" electricity_abs="0"/>
    </tripinfo>
    <tripinfo id="L4-CV-36" depart="228.00" departLane="right-approaching_0" departPos="5.10" departSpeed="0.00" departDelay="0.00" arrival="295.20" arrivalLane="top-exit_0" arrivalPos="486.40" arrivalSpeed="18.04" duration="67.20" routeLength="979.43" waitingTime="0.00" waitingCount="0" stopTime="0.00" timeLoss="11.97" rerouteNo="0" devices="tripinfo_L4-CV-36 emissions_L4-CV-36 ssm_L4-CV-36 toc_L4-CV-36 driverstateL4-CV-36" vType="L4-CV-48" speedFactor="1.08" vaporized="">
        <emissions CO_abs="2185.110386" CO2_abs="235990.006663" HC_abs="13.903235" PMx_abs="3.353607" NOx_abs="86.032647" fuel_abs="101.442265" electricity_abs="0"/>
    </tripinfo>
    <tripinfo id="L2-AV-2" depart="195.10" departLane="right-approaching_0" departPos="5.10" departSpeed="0.00" departDelay="3.10" arrival="298.00" arrivalLane="bottom-exit_0" arrivalPos="486.40" arrivalSpeed="17.33" duration="102.90" routeLength="992.21" waitingTime="0.10" waitingCount="1" stopTime="0.00" timeLoss="44.67" rerouteNo="0" devices="tripinfo_L2-AV-2 emissions_L2-AV-2 ssm_L2-AV-2 toc_L2-AV-2 driverstateL2-AV-2" vType="L2-AV-92" speedFactor="1.04" vaporized="">
        <emissions CO_abs="3807.290422" CO2_abs="266232.630138" HC_abs="21.759941" PMx_abs="3.783932" NOx_abs="99.043639" fuel_abs="114.443254" electricity_abs="0"/>
    </tripinfo>
    <tripinfo id="L4-CV-13" depart="159.20" departLane="left-long-approaching_0" departPos="5.10" departSpeed="0.00" departDelay="0.20" arrival="300.70" arrivalLane="top-exit_0" arrivalPos="486.40" arrivalSpeed="15.82" duration="141.50" routeLength="1392.31" waitingTime="28.80" waitingCount="27" stopTime="0.00" timeLoss="52.58" rerouteNo="0" devices="tripinfo_L4-CV-13 emissions_L4-CV-13 ssm_L4-CV-13 toc_L4-CV-13 driverstateL4-CV-13" vType="L4-CV-Left-56" speedFactor="0.95" vaporized="">
        <emissions CO_abs="6404.340413" CO2_abs="374671.256702" HC_abs="34.158531" PMx_abs="5.117263" NOx_abs="136.887909" fuel_abs="161.057997" electricity_abs="0"/>
    </tripinfo>
    <tripinfo id="L4-CV-34" depart="222.00" departLane="left-long-approaching_0" departPos="5.10" departSpeed="0.00" departDelay="0.00" arrival="301.40" arrivalLane="right-exit_1" arrivalPos="486.40" arrivalSpeed="19.05" duration="79.40" routeLength="1395.23" waitingTime="0.00" waitingCount="0" stopTime="0.00" timeLoss="6.00" rerouteNo="0" devices="tripinfo_L4-CV-34 emissions_L4-CV-34 ssm_L4-CV-34 toc_L4-CV-34 driverstateL4-CV-34" vType="L4-CV-34" speedFactor="1.14" vaporized="">
        <emissions CO_abs="1469.560359" CO2_abs="277946.901129" HC_abs="9.369720" PMx_abs="3.388578" NOx_abs="92.317739" fuel_abs="119.477883" electricity_abs="0"/>
    </tripinfo>
    <tripinfo id="L4-AV-6" depart="192.00" departLane="left-long-approaching_0" departPos="5.10" departSpeed="0.00" departDelay="0.00" arrival="309.80" arrivalLane="top-exit_0" arrivalPos="486.40" arrivalSpeed="14.90" duration="117.80" routeLength="1392.31" waitingTime="0.00" waitingCount="0" stopTime="0.00" timeLoss="23.27" rerouteNo="0" devices="tripinfo_L4-AV-6 emissions_L4-AV-6 ssm_L4-AV-6 toc_L4-AV-6 driverstateL4-AV-6" vType="L4-AV-Left-15" speedFactor="0.89" vaporized="">
        <emissions CO_abs="3065.124973" CO2_abs="313392.656417" HC_abs="17.899070" PMx_abs="3.449640" NOx_abs="109.534000" fuel_abs="134.715721" electricity_abs="0"/>
    </tripinfo>
    <tripinfo id="L4-CV-26" depart="198.00" departLane="left-long-approaching_0" departPos="5.10" departSpeed="0.00" departDelay="0.00" arrival="311.40" arrivalLane="top-exit_0" arrivalPos="486.40" arrivalSpeed="15.01" duration="113.40" routeLength="1392.31" waitingTime="0.00" waitingCount="0" stopTime="0.00" timeLoss="19.56" rerouteNo="0" devices="tripinfo_L4-CV-26 emissions_L4-CV-26 ssm_L4-CV-26 toc_L4-CV-26 driverstateL4-CV-26" vType="L4-CV-Left-4" speedFactor="0.90" vaporized="">
        <emissions CO_abs="2575.721232" CO2_abs="285251.432389" HC_abs="15.401956" PMx_abs="3.157966" NOx_abs="99.598756" fuel_abs="122.618692" electricity_abs="0"/>
    </tripinfo>
    <tripinfo id="L2-CV-9" depart="228.00" departLane="left-long-approaching_0" departPos="5.10" departSpeed="0.00" departDelay="0.00" arrival="316.20" arrivalLane="top-exit_0" arrivalPos="486.40" arrivalSpeed="17.29" duration="88.20" routeLength="1392.31" waitingTime="0.00" waitingCount="0" stopTime="0.00" timeLoss="6.70" rerouteNo="0" devices="tripinfo_L2-CV-9 emissions_L2-CV-9 ssm_L2-CV-9 toc_L2-CV-9 driverstateL2-CV-9" vType="L2-CV-Left-23" speedFactor="1.04" vaporized="">
        <emissions CO_abs="1764.461880" CO2_abs="290672.612191" HC_abs="10.648323" PMx_abs="3.353842" NOx_abs="98.590032" fuel_abs="124.948259" electricity_abs="0"/>
    </tripinfo>
    <tripinfo id="L4-CV-25" depart="195.20" departLane="top-approaching_0" departPos="5.10" departSpeed="0.00" departDelay="0.20" arrival="342.10" arrivalLane="bottom-exit_0" arrivalPos="486.40" arrivalSpeed="18.14" duration="146.90" routeLength="994.90" waitingTime="80.00" waitingCount="1" stopTime="0.00" timeLoss="91.93" rerouteNo="0" devices="tripinfo_L4-CV-25 emissions_L4-CV-25 ssm_L4-CV-25 toc_L4-CV-25 driverstateL4-CV-25" vType="L4-CV-14" speedFactor="1.09" vaporized="">
        <emissions CO_abs="15741.058937" CO2_abs="462441.814763" HC_abs="79.924815" PMx_abs="8.981288" NOx_abs="188.627700" fuel_abs="198.790199" electricity_abs="0"/>
    </tripinfo>
    <tripinfo id="L2-CV-6" depart="192.00" departLane="bottom-approaching_0" departPos="5.10" departSpeed="0.00" departDelay="0.00" arrival="346.60" arrivalLane="top-exit_0" arrivalPos="486.40" arrivalSpeed="16.81" duration="154.60" routeLength="994.90" waitingTime="78.80" waitingCount="1" stopTime="0.00" timeLoss="95.34" rerouteNo="0" devices="tripinfo_L2-CV-6 emissions_L2-CV-6 ssm_L2-CV-6 toc_L2-CV-6 driverstateL2-CV-6" vType="L2-CV-97" speedFactor="1.01" vaporized="">
        <emissions CO_abs="15778.718633" CO2_abs="458800.440338" HC_abs="80.253247" PMx_abs="8.591733" NOx_abs="186.328122" fuel_abs="197.225427" electricity_abs="0"/>
    </tripinfo>
    <tripinfo id="L4-CV-22" depart="186.00" departLane="bottom-approaching_0" departPos="5.10" departSpeed="0.00" departDelay="0.00" arrival="348.20" arrivalLane="right-exit_0" arrivalPos="486.40" arrivalSpeed="15.01" duration="162.20" routeLength="979.43" waitingTime="82.60" waitingCount="1" stopTime="0.00" timeLoss="95.86" rerouteNo="0" devices="tripinfo_L4-CV-22 emissions_L4-CV-22 ssm_L4-CV-22 toc_L4-CV-22 driverstateL4-CV-22" vType="L4-CV-57" speedFactor="0.90" vaporized="">
        <emissions CO_abs="16086.687327" CO2_abs="454856.319467" HC_abs="81.692162" PMx_abs="8.284354" NOx_abs="184.273939" fuel_abs="195.530627" electricity_abs="0"/>
    </tripinfo>
    <tripinfo id="L4-CV-49" depart="267.00" departLane="top-approaching_0" departPos="5.10" departSpeed="0.00" departDelay="0.00" arrival="348.70" arrivalLane="bottom-exit_1" arrivalPos="486.40" arrivalSpeed="16.79" duration="81.70" routeLength="994.90" waitingTime="0.00" waitingCount="0" stopTime="0.00" timeLoss="22.35" rerouteNo="0" devices="tripinfo_L4-CV-49 emissions_L4-CV-49 ssm_L4-CV-49 toc_L4-CV-49 driverstateL4-CV-49" vType="L4-CV-8" speedFactor="1.01" vaporized="">
        <emissions CO_abs="2739.097279" CO2_abs="252273.814545" HC_abs="15.947942" PMx_abs="3.406308" NOx_abs="91.403834" fuel_abs="108.442414" electricity_abs="0"/>
    </tripinfo>
    <tripinfo id="L2-AV-3" depart="228.90" departLane="bottom-approaching_0" departPos="5.10" departSpeed="0.00" departDelay="0.90" arrival="348.90" arrivalLane="top-exit_1" arrivalPos="486.40" arrivalSpeed="16.75" duration="120.00" routeLength="994.90" waitingTime="0.00" waitingCount="0" stopTime="0.00" timeLoss="60.45" rerouteNo="0" devices="tripinfo_L2-AV-3 emissions_L2-AV-3 ssm_L2-AV-3 toc_L2-AV-3 driverstateL2-AV-3" vType="L2-AV-29" speedFactor="1.00" vaporized="">
        <emissions CO_abs="3011.316496" CO2_abs="247060.008264" HC_abs="17.388935" PMx_abs="3.386754" NOx_abs="90.459156" fuel_abs="106.201401" electricity_abs="0"/>
    </tripinfo>
    <tripinfo id="L4-AV-10" depart="240.00" departLane="top-approaching_0" departPos="5.10" departSpeed="0.00" departDelay="0.00" arrival="349.20" arrivalLane="bottom-exit_0" arrivalPos="486.40" arrivalSpeed="15.47" duration="109.20" routeLength="994.90" waitingTime="0.00" waitingCount="0" stopTime="0.00" timeLoss="44.80" rerouteNo="0" devices="tripinfo_L4-AV-10 emissions_L4-AV-10 ssm_L4-AV-10 toc_L4-AV-10 driverstateL4-AV-10" vType="L4-AV-57" speedFactor="0.93" vaporized="">
        <emissions CO_abs="2475.987906" CO2_abs="231688.453745" HC_abs="14.203773" PMx_abs="2.889756" NOx_abs="83.084626" fuel_abs="99.593817" electricity_abs="0"/>
    </tripinfo>
    <tripinfo id="L4-CV-28" depart="205.30" departLane="bottom-approaching_0" departPos="5.10" departSpeed="0.00" departDelay="1.30" arrival="351.70" arrivalLane="right-exit_0" arrivalPos="486.40" arrivalSpeed="14.25" duration="146.40" routeLength="979.43" waitingTime="58.10" waitingCount="25" stopTime="0.00" timeLoss="76.71" rerouteNo="0" devices="tripinfo_L4-CV-28 emissions_L4-CV-28 ssm_L4-CV-28 toc_L4-CV-28 driverstateL4-CV-28" vType="L4-CV-58" speedFactor="0.85" vaporized="">
        <emissions CO_abs="10576.368846" CO2_abs="367827.637166" HC_abs="54.917602" PMx_abs="5.952355" NOx_abs="143.898294" fuel_abs="158.118402" electricity_abs="0"/>
    </tripinfo>
    <tripinfo id="L4-CV-11" depart="153.00" departLane="top-approaching_0" departPos="5.10" departSpeed="0.00" departDelay="0.00" arrival="351.90" arrivalLane="left-exit_0" arrivalPos="820.00" arrivalSpeed="14.55" duration="198.90" routeLength="1379.53" waitingTime="78.30" waitingCount="5" stopTime="0.00" timeLoss="102.94" rerouteNo="0" devices="tripinfo_L4-CV-11 emissions_L4-CV-11 ssm_L4-CV-11 toc_L4-CV-11 driverstateL4-CV-11" vType="L4-CV-6@L4-CV-11" speedFactor="0.87" vaporized="">
        <emissions CO_abs="16527.559653" CO2_abs="519007.264572" HC_abs="84.437798" PMx_abs="8.695301" NOx_abs="204.870161" fuel_abs="223.106986" electricity_abs="0"/>
    </tripinfo>
    <tripinfo id="L2-CV-12" depart="264.00" departLane="bottom-approaching_0" departPos="5.10" departSpeed="0.00" departDelay="0.00" arrival="352.40" arrivalLane="right-exit_1" arrivalPos="486.40" arrivalSpeed="16.92" duration="88.40" routeLength="979.43" waitingTime="8.20" waitingCount="28" stopTime="0.00" timeLoss="29.53" rerouteNo="0" devices="tripinfo_L2-CV-12 emissions_L2-CV-12 ssm_L2-CV-12 toc_L2-CV-12 driverstateL2-CV-12" vType="L2-CV-32" speedFactor="1.02" vaporized="">
        <emissions CO_abs="4165.100875" CO2_abs="271346.190146" HC_abs="23.277296" PMx_abs="4.017392" NOx_abs="101.492129" fuel_abs="116.641381" electricity_abs="0"/>
    </tripinfo>
    <tripinfo id="L4-CV-41" depart="243.00" departLane="bottom-approaching_0" departPos="5.10" departSpeed="0.00" departDelay="0.00" arrival="352.90" arrivalLane="top-exit_0" arrivalPos="486.40" arrivalSpeed="15.25" duration="109.90" routeLength="994.90" waitingTime="0.00" waitingCount="0" stopTime="0.00" timeLoss="44.55" rerouteNo="0" devices="tripinfo_L4-CV-41 emissions_L4-CV-41 ssm_L4-CV-41 toc_L4-CV-41 driverstateL4-CV-41" vType="L4-CV-72" speedFactor="0.91" vaporized="">
        <emissions CO_abs="2748.609853" CO2_abs="243291.336481" HC_abs="15.936693" PMx_abs="3.008071" NOx_abs="87.348130" fuel_abs="104.581650" electricity_abs="0"/>
    </tripinfo>