<?xml version="1.0" encoding="UTF-8"?>

<!-- generated on 04/08/21 21:08:10 by Eclipse SUMO sumo Version 1.8.0
<configuration xmlns:xsi="http://www.w3.org/2001/XMLSchema-instance" xsi:noNamespaceSchemaLocation="http://sumo.dlr.de/xsd/sumoConfiguration.xsd">

    <input>
        <net-file value="Collision\BaselinePenetration1\../CollisionIntersection.net.xml"/>
        <route-files value="Collision\BaselinePenetration1\../CrashedVehicleRoutes.rou.xml,Collision\BaselinePenetration1\Route-Files/L4-CV-Route.rou.xml,Collision\BaselinePenetration1\Route-Files/L4-AV-Route.rou.xml,Collision\BaselinePenetration1\Route-Files/L2-CV-Route.rou.xml,Collision\BaselinePenetration1\Route-Files/L2-AV-Route.rou.xml,Collision\BaselinePenetration1\Route-Files/L0-HDV-Route.rou.xml"/>
        <additional-files value="Collision\BaselinePenetration1\../Additional-Files/Collision-Detectors.add.xml,Collision\BaselinePenetration1\../Additional-Files/Collision-TMS-Rerouters.add.xml,Collision\BaselinePenetration1\PreparingVehicleModels/Vehicle-Models/L4-CV.add.xml,Collision\BaselinePenetration1\PreparingVehicleModels/Vehicle-Models/L4-CV-Left.add.xml,Collision\BaselinePenetration1\PreparingVehicleModels/Vehicle-Models/L4-CV-Right.add.xml,Collision\BaselinePenetration1\PreparingVehicleModels/Vehicle-Models/L4-AV.add.xml,Collision\BaselinePenetration1\PreparingVehicleModels/Vehicle-Models/L4-AV-Left.add.xml,Collision\BaselinePenetration1\PreparingVehicleModels/Vehicle-Models/L4-AV-Right.add.xml,Collision\BaselinePenetration1\PreparingVehicleModels/Vehicle-Models/L2-CV.add.xml,Collision\BaselinePenetration1\PreparingVehicleModels/Vehicle-Models/L2-CV-Left.add.xml,Collision\BaselinePenetration1\PreparingVehicleModels/Vehicle-Models/L2-CV-Right.add.xml,Collision\BaselinePenetration1\PreparingVehicleModels/Vehicle-Models/L2-AV.add.xml,Collision\BaselinePenetration1\PreparingVehicleModels/Vehicle-Models/L2-AV-Left.add.xml,Collision\BaselinePenetration1\PreparingVehicleModels/Vehicle-Models/L2-AV-Right.add.xml,Collision\BaselinePenetration1\PreparingVehicleModels/Vehicle-Models/L0-HDV.add.xml,Collision\BaselinePenetration1\PreparingVehicleModels/Vehicle-Models/L0-HDV-Left.add.xml,Collision\BaselinePenetration1\PreparingVehicleModels/Vehicle-Models/L0-HDV-Straight.add.xml,Collision\BaselinePenetration1\../Additional-Files/Collision-Traffic-lights.add.xml,Collision\BaselinePenetration1\../Additional-Files/Collision-Traffic-Signs.add.xml"/>
    </input>

    <output>
        <tripinfo-output value="Collision\BaselinePenetration1\Output-Files\TripInfo.xml"/>
    </output>

    <time>
        <begin value="0"/>
        <step-length value="0.1"/>
    </time>

    <processing>
        <ignore-route-errors value="true"/>
        <waiting-time-memory value="300"/>
        <default.action-step-length value="0.1"/>
    </processing>

    <report>
        <no-warnings value="true"/>
    </report>

    <emissions>
        <device.emissions.probability value="1"/>
    </emissions>

    <traci_server>
        <remote-port value="54952"/>
    </traci_server>

    <gui_only>
        <quit-on-end value="true"/>
        <start value="true"/>
        <tracker-interval value="0.1"/>
    </gui_only>

</configuration>
-->

<tripinfos xmlns:xsi="http://www.w3.org/2001/XMLSchema-instance" xsi:noNamespaceSchemaLocation="http://sumo.dlr.de/xsd/tripinfo_file.xsd">
    <tripinfo id="L2-CV-0" depart="120.00" departLane="left-long-approaching_0" departPos="5.10" departSpeed="0.00" departDelay="0.00" arrival="183.90" arrivalLane="bottom-exit_0" arrivalPos="486.40" arrivalSpeed="20.01" duration="63.90" routeLength="979.53" waitingTime="0.00" waitingCount="0" stopTime="0.00" timeLoss="14.08" rerouteNo="0" devices="tripinfo_L2-CV-0 emissions_L2-CV-0 ssm_L2-CV-0 toc_L2-CV-0 driverstateL2-CV-0" vType="L2-CV-Right-0" speedFactor="1.20" vaporized="">
        <emissions CO_abs="2724.245731" CO2_abs="260839.200191" HC_abs="17.268551" PMx_abs="4.074778" NOx_abs="96.866211" fuel_abs="112.123742" electricity_abs="0"/>
    </tripinfo>
    <tripinfo id="L0-HDV-2" depart="123.60" departLane="right-approaching_0" departPos="5.10" departSpeed="0.00" departDelay="0.08" arrival="190.80" arrivalLane="top-exit_0" arrivalPos="486.40" arrivalSpeed="17.19" duration="67.20" routeLength="979.43" waitingTime="0.00" waitingCount="0" stopTime="0.00" timeLoss="9.80" rerouteNo="0" devices="tripinfo_L0-HDV-2 emissions_L0-HDV-2 ssm_L0-HDV-2" vType="L0-HDV-32" speedFactor="1.04" vaporized="">
        <emissions CO_abs="2867.899571" CO2_abs="227301.436747" HC_abs="18.333794" PMx_abs="3.997577" NOx_abs="90.578290" fuel_abs="97.706866" electricity_abs="0"/>
    </tripinfo>
    <tripinfo id="L0-HDV-6" depart="130.60" departLane="left-long-approaching_0" departPos="5.10" departSpeed="0.00" departDelay="0.04" arrival="191.40" arrivalLane="bottom-exit_0" arrivalPos="486.40" arrivalSpeed="18.79" duration="60.80" routeLength="979.53" waitingTime="0.00" waitingCount="0" stopTime="0.00" timeLoss="8.09" rerouteNo="0" devices="tripinfo_L0-HDV-6 emissions_L0-HDV-6 ssm_L0-HDV-6" vType="L0-HDV-22" speedFactor="1.13" vaporized="">
        <emissions CO_abs="3509.338014" CO2_abs="260245.355341" HC_abs="22.190197" PMx_abs="5.062635" NOx_abs="106.802358" fuel_abs="111.867476" electricity_abs="0"/>
    </tripinfo>
    <tripinfo id="L2-AV-1" depart="127.00" departLane="left-long-approaching_0" departPos="5.10" departSpeed="0.00" departDelay="0.00" arrival="192.50" arrivalLane="right-exit_0" arrivalPos="486.40" arrivalSpeed="16.27" duration="65.50" routeLength="995.23" waitingTime="0.00" waitingCount="0" stopTime="0.00" timeLoss="4.19" rerouteNo="0" devices="tripinfo_L2-AV-1 emissions_L2-AV-1 ssm_L2-AV-1 toc_L2-AV-1 driverstateL2-AV-1" vType="L2-AV-98" speedFactor="0.98" vaporized="">
        <emissions CO_abs="1136.609486" CO2_abs="201852.697799" HC_abs="6.468168" PMx_abs="2.059822" NOx_abs="66.962438" fuel_abs="86.768438" electricity_abs="0"/>
    </tripinfo>
    <tripinfo id="L2-CV-1" depart="127.00" departLane="right-approaching_0" departPos="5.10" departSpeed="0.00" departDelay="0.00" arrival="194.50" arrivalLane="bottom-exit_1" arrivalPos="486.40" arrivalSpeed="17.30" duration="67.50" routeLength="992.21" waitingTime="0.00" waitingCount="0" stopTime="0.00" timeLoss="9.13" rerouteNo="0" devices="tripinfo_L2-CV-1 emissions_L2-CV-1 ssm_L2-CV-1 toc_L2-CV-1 driverstateL2-CV-1" vType="L2-CV-28" speedFactor="1.04" vaporized="">
        <emissions CO_abs="2201.858386" CO2_abs="237461.352440" HC_abs="12.800834" PMx_abs="3.263810" NOx_abs="85.618894" fuel_abs="102.074703" electricity_abs="0"/>
    </tripinfo>
    <tripinfo id="L0-HDV-9" depart="135.90" departLane="left-long-approaching_0" departPos="5.10" departSpeed="0.00" departDelay="0.06" arrival="196.50" arrivalLane="top-exit_1" arrivalPos="486.40" arrivalSpeed="21.91" duration="60.60" routeLength="992.31" waitingTime="0.00" waitingCount="0" stopTime="0.00" timeLoss="14.58" rerouteNo="0" devices="tripinfo_L0-HDV-9 emissions_L0-HDV-9 ssm_L0-HDV-9" vType="L0-HDV-Left-99" speedFactor="1.31" vaporized="">
        <emissions CO_abs="3009.400576" CO2_abs="243830.093306" HC_abs="19.520404" PMx_abs="4.328284" NOx_abs="95.100594" fuel_abs="104.811952" electricity_abs="0"/>
    </tripinfo>
    <tripinfo id="L2-AV-2" depart="137.50" departLane="right-approaching_0" departPos="5.10" departSpeed="0.00" departDelay="3.50" arrival="206.90" arrivalLane="bottom-exit_0" arrivalPos="486.40" arrivalSpeed="17.38" duration="69.40" routeLength="992.21" waitingTime="0.00" waitingCount="0" stopTime="0.00" timeLoss="11.41" rerouteNo="0" devices="tripinfo_L2-AV-2 emissions_L2-AV-2 ssm_L2-AV-2 toc_L2-AV-2 driverstateL2-AV-2" vType="L2-AV-1" speedFactor="1.04" vaporized="">
        <emissions CO_abs="1995.423246" CO2_abs="219864.676126" HC_abs="12.221450" PMx_abs="2.879836" NOx_abs="78.716585" fuel_abs="94.510886" electricity_abs="0"/>
    </tripinfo>
    <tripinfo id="L0-HDV-16" depart="151.10" departLane="left-long-approaching_0" departPos="5.10" departSpeed="0.00" departDelay="2.94" arrival="217.40" arrivalLane="top-exit_0" arrivalPos="486.40" arrivalSpeed="17.97" duration="66.30" routeLength="992.31" waitingTime="0.00" waitingCount="0" stopTime="0.00" timeLoss="10.34" rerouteNo="0" devices="tripinfo_L0-HDV-16 emissions_L0-HDV-16 ssm_L0-HDV-16" vType="L0-HDV-Left-81" speedFactor="1.08" vaporized="">
        <emissions CO_abs="2239.091536" CO2_abs="194091.724250" HC_abs="14.466700" PMx_abs="3.110451" NOx_abs="74.392785" fuel_abs="83.431825" electricity_abs="0"/>
    </tripinfo>
    <tripinfo id="L0-HDV-12" depart="141.20" departLane="right-approaching_0" departPos="5.10" departSpeed="0.00" departDelay="0.08" arrival="227.00" arrivalLane="bottom-exit_0" arrivalPos="486.40" arrivalSpeed="12.42" duration="85.80" routeLength="992.21" waitingTime="0.00" waitingCount="0" stopTime="0.00" timeLoss="5.16" rerouteNo="0" devices="tripinfo_L0-HDV-12 emissions_L0-HDV-12 ssm_L0-HDV-12" vType="L0-HDV-84" speedFactor="0.75" vaporized="">
        <emissions CO_abs="2262.224458" CO2_abs="184455.102758" HC_abs="14.560706" PMx_abs="2.715392" NOx_abs="71.293509" fuel_abs="79.289761" electricity_abs="0"/>
    </tripinfo>
    <tripinfo id="L0-HDV-5" depart="130.70" departLane="top-approaching_0" departPos="5.10" departSpeed="0.00" departDelay="1.90" arrival="235.80" arrivalLane="bottom-exit_0" arrivalPos="486.40" arrivalSpeed="18.95" duration="105.10" routeLength="994.90" waitingTime="32.40" waitingCount="1" stopTime="0.00" timeLoss="52.50" rerouteNo="0" devices="tripinfo_L0-HDV-5 emissions_L0-HDV-5 ssm_L0-HDV-5" vType="L0-HDV-26" speedFactor="1.14" vaporized="">
        <emissions CO_abs="8709.113480" CO2_abs="317530.661321" HC_abs="46.890985" PMx_abs="6.128803" NOx_abs="130.490335" fuel_abs="136.495561" electricity_abs="0"/>
    </tripinfo>
    <tripinfo id="L4-CV-0" depart="120.00" departLane="bottom-approaching_0" departPos="5.10" departSpeed="0.00" departDelay="0.00" arrival="236.20" arrivalLane="top-exit_0" arrivalPos="486.40" arrivalSpeed="16.26" duration="116.20" routeLength="994.90" waitingTime="43.40" waitingCount="1" stopTime="0.00" timeLoss="54.92" rerouteNo="0" devices="tripinfo_L4-CV-0 emissions_L4-CV-0 ssm_L4-CV-0 toc_L4-CV-0 driverstateL4-CV-0" vType="L4-CV-89" speedFactor="0.98" vaporized="">
        <emissions CO_abs="9478.331315" CO2_abs="353357.397965" HC_abs="48.490145" PMx_abs="5.945198" NOx_abs="137.893048" fuel_abs="151.897087" electricity_abs="0"/>
    </tripinfo>
    <tripinfo id="L2-AV-0" depart="123.10" departLane="bottom-approaching_0" departPos="5.10" departSpeed="0.00" departDelay="3.10" arrival="236.30" arrivalLane="right-exit_0" arrivalPos="486.40" arrivalSpeed="16.59" duration="113.20" routeLength="979.43" waitingTime="38.60" waitingCount="1" stopTime="0.00" timeLoss="53.22" rerouteNo="0" devices="tripinfo_L2-AV-0 emissions_L2-AV-0 ssm_L2-AV-0 toc_L2-AV-0 driverstateL2-AV-0" vType="L2-AV-56" speedFactor="1.00" vaporized="">
        <emissions CO_abs="9051.603447" CO2_abs="344863.336739" HC_abs="46.652108" PMx_abs="5.807311" NOx_abs="134.704616" fuel_abs="148.245610" electricity_abs="0"/>
    </tripinfo>
    <tripinfo id="L0-HDV-13" depart="146.60" departLane="bottom-approaching_0" departPos="5.10" departSpeed="0.00" departDelay="3.72" arrival="236.40" arrivalLane="top-exit_1" arrivalPos="486.40" arrivalSpeed="18.79" duration="89.80" routeLength="994.90" waitingTime="0.00" waitingCount="0" stopTime="0.00" timeLoss="36.78" rerouteNo="0" devices="tripinfo_L0-HDV-13 emissions_L0-HDV-13 ssm_L0-HDV-13" vType="L0-HDV-1" speedFactor="1.13" vaporized="">
        <emissions CO_abs="3036.277547" CO2_abs="199494.585318" HC_abs="17.825777" PMx_abs="3.597855" NOx_abs="79.381762" fuel_abs="85.754185" electricity_abs="0"/>
    </tripinfo>
    <tripinfo id="L0-HDV-11" depart="140.60" departLane="top-approaching_0" departPos="5.10" departSpeed="0.00" departDelay="1.24" arrival="236.60" arrivalLane="bottom-exit_1" arrivalPos="486.40" arrivalSpeed="20.66" duration="96.00" routeLength="994.90" waitingTime="24.90" waitingCount="1" stopTime="0.00" timeLoss="47.84" rerouteNo="0" devices="tripinfo_L0-HDV-11 emissions_L0-HDV-11 ssm_L0-HDV-11" vType="L0-HDV-87" speedFactor="1.24" vaporized="">
        <emissions CO_abs="8052.310593" CO2_abs="331315.664263" HC_abs="44.501245" PMx_abs="6.504368" NOx_abs="136.391360" fuel_abs="142.420301" electricity_abs="0"/>
    </tripinfo>
    <tripinfo id="L0-HDV-10" depart="137.60" departLane="top-approaching_0" departPos="5.10" departSpeed="0.00" departDelay="0.00" arrival="236.80" arrivalLane="bottom-exit_0" arrivalPos="486.40" arrivalSpeed="19.09" duration="99.20" routeLength="994.90" waitingTime="29.10" waitingCount="1" stopTime="0.00" timeLoss="47.00" rerouteNo="0" devices="tripinfo_L0-HDV-10 emissions_L0-HDV-10 ssm_L0-HDV-10" vType="L0-HDV-61" speedFactor="1.15" vaporized="">
        <emissions CO_abs="7901.848192" CO2_abs="297444.026213" HC_abs="42.116649" PMx_abs="5.660534" NOx_abs="121.084895" fuel_abs="127.860852" electricity_abs="0"/>
    </tripinfo>
    <tripinfo id="L0-HDV-18" depart="152.00" departLane="bottom-approaching_0" departPos="5.10" departSpeed="0.00" departDelay="0.32" arrival="238.40" arrivalLane="top-exit_1" arrivalPos="486.40" arrivalSpeed="21.65" duration="86.40" routeLength="994.90" waitingTime="0.00" waitingCount="0" stopTime="0.00" timeLoss="40.51" rerouteNo="0" devices="tripinfo_L0-HDV-18 emissions_L0-HDV-18 ssm_L0-HDV-18" vType="L0-HDV-67" speedFactor="1.30" vaporized="">
        <emissions CO_abs="4912.718039" CO2_abs="277522.529196" HC_abs="28.944959" PMx_abs="5.373641" NOx_abs="113.908202" fuel_abs="119.295156" electricity_abs="0"/>
    </tripinfo>
    <tripinfo id="L0-HDV-29" depart="171.10" departLane="top-approaching_0" departPos="5.10" departSpeed="0.00" departDelay="0.06" arrival="239.20" arrivalLane="bottom-exit_0" arrivalPos="486.40" arrivalSpeed="20.54" duration="68.10" routeLength="994.90" waitingTime="0.00" waitingCount="0" stopTime="0.00" timeLoss="19.66" rerouteNo="0" devices="tripinfo_L0-HDV-29 emissions_L0-HDV-29 ssm_L0-HDV-29" vType="L0-HDV-10" speedFactor="1.23" vaporized="">
        <emissions CO_abs="3063.199538" CO2_abs="238882.493772" HC_abs="19.554092" PMx_abs="4.060146" NOx_abs="93.170166" fuel_abs="102.685439" electricity_abs="0"/>
    </tripinfo>
    <tripinfo id="L4-AV-1" depart="140.00" departLane="bottom-approaching_0" departPos="5.10" departSpeed="0.00" departDelay="0.00" arrival="240.90" arrivalLane="right-exit_0" arrivalPos="486.40" arrivalSpeed="15.82" duration="100.90" routeLength="979.43" waitingTime="0.00" waitingCount="0" stopTime="0.00" timeLoss="37.96" rerouteNo="0" devices="tripinfo_L4-AV-1 emissions_L4-AV-1 ssm_L4-AV-1 toc_L4-AV-1 driverstateL4-AV-1" vType="L4-AV-56" speedFactor="0.95" vaporized="">
        <emissions CO_abs="2720.755015" CO2_abs="236233.446960" HC_abs="15.491306" PMx_abs="3.061047" NOx_abs="85.567402" fuel_abs="101.547533" electricity_abs="0"/>
    </tripinfo>
    <tripinfo id="L0-HDV-31" depart="174.60" departLane="bottom-approaching_0" departPos="5.10" departSpeed="0.00" departDelay="0.04" arrival="241.00" arrivalLane="top-exit_1" arrivalPos="486.40" arrivalSpeed="21.74" duration="66.40" routeLength="994.90" waitingTime="0.00" waitingCount="0" stopTime="0.00" timeLoss="20.69" rerouteNo="0" devices="tripinfo_L0-HDV-31 emissions_L0-HDV-31 ssm_L0-HDV-31" vType="L0-HDV-33" speedFactor="1.31" vaporized="">
        <emissions CO_abs="4258.513624" CO2_abs="270304.469656" HC_abs="25.890525" PMx_abs="5.307042" NOx_abs="110.555757" fuel_abs="116.191956" electricity_abs="0"/>
    </tripinfo>
    <tripinfo id="L4-AV-3" depart="180.00" departLane="top-approaching_0" departPos="5.10" departSpeed="0.00" departDelay="0.00" arrival="242.30" arrivalLane="bottom-exit_0" arrivalPos="486.40" arrivalSpeed="19.65" duration="62.30" routeLength="994.90" waitingTime="0.00" waitingCount="0" stopTime="0.00" timeLoss="11.55" rerouteNo="0" devices="tripinfo_L4-AV-3 emissions_L4-AV-3 ssm_L4-AV-3 toc_L4-AV-3 driverstateL4-AV-3" vType="L4-AV-21" speedFactor="1.18" vaporized="">
        <emissions CO_abs="2060.799328" CO2_abs="234229.686332" HC_abs="13.664690" PMx_abs="3.546828" NOx_abs="86.090008" fuel_abs="100.685282" electricity_abs="0"/>
    </tripinfo>
    <tripinfo id="L4-AV-0" depart="123.00" departLane="bottom-approaching_0" departPos="5.10" departSpeed="0.00" departDelay="3.00" arrival="243.00" arrivalLane="top-exit_0" arrivalPos="486.40" arrivalSpeed="13.99" duration="120.00" routeLength="994.90" waitingTime="0.00" waitingCount="0" stopTime="0.00" timeLoss="48.76" rerouteNo="0" devices="tripinfo_L4-AV-0 emissions_L4-AV-0 ssm_L4-AV-0 toc_L4-AV-0 driverstateL4-AV-0" vType="L4-AV-74" speedFactor="0.84" vaporized="">
        <emissions CO_abs="2227.409169" CO2_abs="222331.085607" HC_abs="13.577082" PMx_abs="2.502529" NOx_abs="78.729718" fuel_abs="95.571788" electricity_abs="0"/>
    </tripinfo>
    <tripinfo id="L0-HDV-24" depart="162.30" departLane="bottom-approaching_0" departPos="5.10" departSpeed="0.00" departDelay="0.06" arrival="243.50" arrivalLane="right-exit_1" arrivalPos="486.40" arrivalSpeed="17.87" duration="81.20" routeLength="979.43" waitingTime="0.00" waitingCount="0" stopTime="0.00" timeLoss="25.47" rerouteNo="0" devices="tripinfo_L0-HDV-24 emissions_L0-HDV-24 ssm_L0-HDV-24" vType="L0-HDV-8" speedFactor="1.07" vaporized="">
        <emissions CO_abs="3477.651969" CO2_abs="212268.731395" HC_abs="20.202440" PMx_abs="3.527576" NOx_abs="83.446372" fuel_abs="91.245854" electricity_abs="0"/>
    </tripinfo>
    <tripinfo id="L2-CV-3" depart="143.30" departLane="bottom-approaching_0" departPos="5.10" departSpeed="0.00" departDelay="2.30" arrival="245.00" arrivalLane="right-exit_0" arrivalPos="486.40" arrivalSpeed="15.01" duration="101.70" routeLength="979.43" waitingTime="0.00" waitingCount="0" stopTime="0.00" timeLoss="35.35" rerouteNo="0" devices="tripinfo_L2-CV-3 emissions_L2-CV-3 ssm_L2-CV-3 toc_L2-CV-3 driverstateL2-CV-3" vType="L2-CV-4" speedFactor="0.90" vaporized="">
        <emissions CO_abs="2732.264027" CO2_abs="238015.935154" HC_abs="16.210446" PMx_abs="2.925116" NOx_abs="85.786485" fuel_abs="102.314057" electricity_abs="0"/>
    </tripinfo>
    <tripinfo id="L2-AV-3" depart="146.50" departLane="bottom-approaching_0" departPos="5.10" departSpeed="0.00" departDelay="5.50" arrival="245.70" arrivalLane="top-exit_0" arrivalPos="486.40" arrivalSpeed="17.04" duration="99.20" routeLength="994.90" waitingTime="0.10" waitingCount="1" stopTime="0.00" timeLoss="40.67" rerouteNo="0" devices="tripinfo_L2-AV-3 emissions_L2-AV-3 ssm_L2-AV-3 toc_L2-AV-3 driverstateL2-AV-3" vType="L2-AV-94" speedFactor="1.02" vaporized="">
        <emissions CO_abs="3699.892600" CO2_abs="208627.539699" HC_abs="21.079799" PMx_abs="3.450313" NOx_abs="82.373818" fuel_abs="89.680860" electricity_abs="0"/>
    </tripinfo>
    <tripinfo id="L0-HDV-34" depart="179.90" departLane="bottom-approaching_0" departPos="5.10" departSpeed="0.00" departDelay="0.06" arrival="247.30" arrivalLane="top-exit_0" arrivalPos="486.40" arrivalSpeed="16.94" duration="67.40" routeLength="994.90" waitingTime="0.00" waitingCount="0" stopTime="0.00" timeLoss="8.56" rerouteNo="0" devices="tripinfo_L0-HDV-34 emissions_L0-HDV-34 ssm_L0-HDV-34" vType="L0-HDV-8" speedFactor="1.02" vaporized="">
        <emissions CO_abs="1669.456821" CO2_abs="153981.394223" HC_abs="10.254099" PMx_abs="2.182305" NOx_abs="56.778804" fuel_abs="66.190345" electricity_abs="0"/>
    </tripinfo>
    <tripinfo id="L0-HDV-35" depart="183.60" departLane="bottom-approaching_0" departPos="5.10" departSpeed="0.00" departDelay="2.00" arrival="253.20" arrivalLane="top-exit_0" arrivalPos="486.40" arrivalSpeed="15.28" duration="69.60" routeLength="994.90" waitingTime="0.00" waitingCount="0" stopTime="0.00" timeLoss="4.84" rerouteNo="0" devices="tripinfo_L0-HDV-35 emissions_L0-HDV-35 ssm_L0-HDV-35" vType="L0-HDV-78" speedFactor="0.92" vaporized="">
        <emissions CO_abs="1862.695536" CO2_abs="182039.741025" HC_abs="12.577853" PMx_abs="2.849849" NOx_abs="70.049678" fuel_abs="78.251033" electricity_abs="0"/>
    </tripinfo>
    <tripinfo id="L0-HDV-41" depart="192.20" departLane="bottom-approaching_0" departPos="5.10" departSpeed="0.00" departDelay="0.04" arrival="253.20" arrivalLane="top-exit_1" arrivalPos="486.40" arrivalSpeed="19.86" duration="61.00" routeLength="994.90" waitingTime="0.00" waitingCount="0" stopTime="0.00" timeLoss="11.02" rerouteNo="0" devices="tripinfo_L0-HDV-41 emissions_L0-HDV-41 ssm_L0-HDV-41" vType="L0-HDV-23" speedFactor="1.20" vaporized="">
        <emissions CO_abs="2599.708498" CO2_abs="210679.725086" HC_abs="16.737500" PMx_abs="3.698486" NOx_abs="82.326860" fuel_abs="90.562048" electricity_abs="0"/>
    </tripinfo>
    <tripinfo id="L2-CV-10" depart="190.00" departLane="top-approaching_0" departPos="5.10" departSpeed="0.00" departDelay="0.00" arrival="259.00" arrivalLane="bottom-exit_0" arrivalPos="486.40" arrivalSpeed="16.60" duration="69.00" routeLength="994.90" waitingTime="0.10" waitingCount="1" stopTime="0.00" timeLoss="8.95" rerouteNo="0" devices="tripinfo_L2-CV-10 emissions_L2-CV-10 ssm_L2-CV-10 toc_L2-CV-10 driverstateL2-CV-10" vType="L2-CV-88" speedFactor="1.00" vaporized="">
        <emissions CO_abs="1545.819503" CO2_abs="211094.092304" HC_abs="9.075476" PMx_abs="2.269247" NOx_abs="71.199610" fuel_abs="90.741155" electricity_abs="0"/>
    </tripinfo>
    <tripinfo id="L0-HDV-39" depart="188.70" departLane="bottom-approaching_0" departPos="5.10" departSpeed="0.00" departDelay="0.06" arrival="260.20" arrivalLane="right-exit_0" arrivalPos="486.40" arrivalSpeed="14.75" duration="71.50" routeLength="979.43" waitingTime="0.00" waitingCount="0" stopTime="0.00" timeLoss="4.15" rerouteNo="0" devices="tripinfo_L0-HDV-39 emissions_L0-HDV-39 ssm_L0-HDV-39" vType="L0-HDV-58" speedFactor="0.89" vaporized="">
        <emissions CO_abs="1552.218536" CO2_abs="156931.457784" HC_abs="10.367871" PMx_abs="2.301010" NOx_abs="59.388185" fuel_abs="67.458218" electricity_abs="0"/>
    </tripinfo>
    <tripinfo id="L0-HDV-4" depart="127.10" departLane="top-approaching_0" departPos="5.10" departSpeed="0.00" departDelay="0.06" arrival="262.10" arrivalLane="right-exit_1" arrivalPos="486.40" arrivalSpeed="18.77" duration="135.00" routeLength="992.21" waitingTime="59.10" waitingCount="3" stopTime="0.00" timeLoss="81.24" rerouteNo="0" devices="tripinfo_L0-HDV-4 emissions_L0-HDV-4 ssm_L0-HDV-4" vType="L0-HDV-52" speedFactor="1.13" vaporized="">
        <emissions CO_abs="13513.967844" CO2_abs="388051.402404" HC_abs="69.879409" PMx_abs="7.883196" NOx_abs="162.738819" fuel_abs="166.811704" electricity_abs="0"/>
    </tripinfo>
    <tripinfo id="L2-AV-11" depart="200.10" departLane="top-approaching_0" departPos="5.10" departSpeed="0.00" departDelay="3.10" arrival="268.60" arrivalLane="right-exit_0" arrivalPos="486.40" arrivalSpeed="17.75" duration="68.50" routeLength="992.21" waitingTime="0.00" waitingCount="0" stopTime="0.00" timeLoss="11.71" rerouteNo="0" devices="tripinfo_L2-AV-11 emissions_L2-AV-11 ssm_L2-AV-11 toc_L2-AV-11 driverstateL2-AV-11" vType="L2-AV-47" speedFactor="1.07" vaporized="">
        <emissions CO_abs="2156.221927" CO2_abs="238999.524541" HC_abs="12.902637" PMx_abs="3.166733" NOx_abs="85.633129" fuel_abs="102.736066" electricity_abs="0"/>
    </tripinfo>
    <tripinfo id="L0-HDV-50" depart="208.00" departLane="top-approaching_0" departPos="5.10" departSpeed="0.00" departDelay="0.00" arrival="270.40" arrivalLane="right-exit_1" arrivalPos="486.40" arrivalSpeed="20.09" duration="62.40" routeLength="992.21" waitingTime="0.00" waitingCount="0" stopTime="0.00" timeLoss="12.32" rerouteNo="0" devices="tripinfo_L0-HDV-50 emissions_L0-HDV-50 ssm_L0-HDV-50" vType="L0-HDV-13" speedFactor="1.21" vaporized="">
        <emissions CO_abs="2917.845257" CO2_abs="235797.713714" HC_abs="18.849051" PMx_abs="4.170620" NOx_abs="92.737247" fuel_abs="101.359112" electricity_abs="0"/>
    </tripinfo>
    <tripinfo id="L0-HDV-19" depart="153.50" departLane="right-approaching_0" departPos="5.10" departSpeed="0.00" departDelay="0.06" arrival="281.30" arrivalLane="top-exit_0" arrivalPos="486.40" arrivalSpeed="19.95" duration="127.80" routeLength="979.43" waitingTime="62.20" waitingCount="1" stopTime="0.00" timeLoss="77.88" rerouteNo="0" devices="tripinfo_L0-HDV-19 emissions_L0-HDV-19 ssm_L0-HDV-19" vType="L0-HDV-20" speedFactor="1.20" vaporized="">
        <emissions CO_abs="13482.676621" CO2_abs="391144.623622" HC_abs="70.554971" PMx_abs="8.314177" NOx_abs="166.299042" fuel_abs="168.140845" electricity_abs="0"/>
    </tripinfo>
    <tripinfo id="L0-HDV-21" depart="157.00" departLane="left-long-approaching_0" departPos="5.10" departSpeed="0.00" departDelay="0.04" arrival="284.70" arrivalLane="bottom-exit_1" arrivalPos="486.40" arrivalSpeed="19.67" duration="127.70" routeLength="979.53" waitingTime="58.80" waitingCount="1" stopTime="0.00" timeLoss="77.07" rerouteNo="0" devices="tripinfo_L0-HDV-21 emissions_L0-HDV-21 ssm_L0-HDV-21" vType="L0-HDV-52" speedFactor="1.18" vaporized="">
        <emissions CO_abs="13070.413661" CO2_abs="383400.159572" HC_abs="68.011845" PMx_abs="7.869642" NOx_abs="160.968560" fuel_abs="164.811987" electricity_abs="0"/>
    </tripinfo>
    <tripinfo id="L0-HDV-23" depart="160.60" departLane="left-long-approaching_0" departPos="5.10" departSpeed="0.00" departDelay="0.12" arrival="286.40" arrivalLane="right-exit_0" arrivalPos="486.40" arrivalSpeed="16.18" duration="125.80" routeLength="995.23" waitingTime="52.90" waitingCount="1" stopTime="0.00" timeLoss="64.44" rerouteNo="0" devices="tripinfo_L0-HDV-23 emissions_L0-HDV-23 ssm_L0-HDV-23" vType="L0-HDV-Straight-42" speedFactor="0.97" vaporized="">
        <emissions CO_abs="12125.156823" CO2_abs="384031.200295" HC_abs="64.204061" PMx_abs="7.950477" NOx_abs="163.135189" fuel_abs="165.082256" electricity_abs="0"/>
    </tripinfo>
    <tripinfo id="L2-AV-4" depart="148.00" departLane="left-long-approaching_0" departPos="5.10" departSpeed="0.00" departDelay="0.00" arrival="288.50" arrivalLane="bottom-exit_0" arrivalPos="486.40" arrivalSpeed="14.87" duration="140.50" routeLength="979.53" waitingTime="63.00" waitingCount="1" stopTime="0.00" timeLoss="73.56" rerouteNo="0" devices="tripinfo_L2-AV-4 emissions_L2-AV-4 ssm_L2-AV-4 toc_L2-AV-4 driverstateL2-AV-4" vType="L2-AV-Right-23" speedFactor="0.89" vaporized="">
        <emissions CO_abs="12618.947752" CO2_abs="397969.783804" HC_abs="64.298902" PMx_abs="6.869249" NOx_abs="158.160438" fuel_abs="171.075917" electricity_abs="0"/>
    </tripinfo>
    <tripinfo id="L0-HDV-30" depart="173.00" departLane="right-approaching_0" departPos="5.10" departSpeed="0.00" departDelay="0.20" arrival="289.00" arrivalLane="top-exit_0" arrivalPos="486.40" arrivalSpeed="15.19" duration="116.00" routeLength="979.43" waitingTime="38.30" waitingCount="1" stopTime="0.00" timeLoss="50.44" rerouteNo="0" devices="tripinfo_L0-HDV-30 emissions_L0-HDV-30 ssm_L0-HDV-30" vType="L0-HDV-19" speedFactor="0.91" vaporized="">
        <emissions CO_abs="8535.839697" CO2_abs="269667.480076" HC_abs="44.079524" PMx_abs="4.994947" NOx_abs="110.143670" fuel_abs="115.921883" electricity_abs="0"/>
    </tripinfo>
    <tripinfo id="L2-CV-8" depart="176.00" departLane="right-approaching_0" departPos="5.10" departSpeed="0.00" departDelay="0.00" arrival="290.60" arrivalLane="top-exit_0" arrivalPos="486.40" arrivalSpeed="16.95" duration="114.60" routeLength="979.43" waitingTime="31.60" waitingCount="2" stopTime="0.00" timeLoss="55.96" rerouteNo="0" devices="tripinfo_L2-CV-8 emissions_L2-CV-8 ssm_L2-CV-8 toc_L2-CV-8 driverstateL2-CV-8" vType="L2-CV-59" speedFactor="1.02" vaporized="">
        <emissions CO_abs="6810.535863" CO2_abs="280842.524166" HC_abs="36.648484" PMx_abs="4.878634" NOx_abs="111.673484" fuel_abs="120.724546" electricity_abs="0"/>
    </tripinfo>
    <tripinfo id="L0-HDV-46" depart="201.10" departLane="left-long-approaching_0" departPos="5.10" departSpeed="0.00" departDelay="0.14" arrival="291.00" arrivalLane="bottom-exit_0" arrivalPos="486.40" arrivalSpeed="16.37" duration="89.90" routeLength="979.53" waitingTime="11.30" waitingCount="1" stopTime="0.00" timeLoss="30.10" rerouteNo="0" devices="tripinfo_L0-HDV-46 emissions_L0-HDV-46 ssm_L0-HDV-46" vType="L0-HDV-27" speedFactor="1.00" vaporized="">
        <emissions CO_abs="6153.713774" CO2_abs="299541.838433" HC_abs="35.133536" PMx_abs="5.976747" NOx_abs="125.715647" fuel_abs="128.760618" electricity_abs="0"/>
    </tripinfo>
    <tripinfo id="L0-HDV-66" depart="239.20" departLane="left-long-approaching_0" departPos="5.10" departSpeed="0.00" departDelay="3.04" arrival="291.80" arrivalLane="bottom-exit_1" arrivalPos="486.40" arrivalSpeed="22.58" duration="52.60" routeLength="979.53" waitingTime="0.00" waitingCount="0" stopTime="0.00" timeLoss="8.50" rerouteNo="0" devices="tripinfo_L0-HDV-66 emissions_L0-HDV-66 ssm_L0-HDV-66" vType="L0-HDV-1" speedFactor="1.36" vaporized="">
        <emissions CO_abs="3000.192675" CO2_abs="216067.594776" HC_abs="18.912654" PMx_abs="4.376423" NOx_abs="88.021714" fuel_abs="92.877495" electricity_abs="0"/>
    </tripinfo>
    <tripinfo id="L0-HDV-32" depart="176.40" departLane="left-long-approaching_0" departPos="5.10" departSpeed="0.00" departDelay="0.08" arrival="292.10" arrivalLane="right-exit_0" arrivalPos="486.40" arrivalSpeed="14.48" duration="115.70" routeLength="995.23" waitingTime="32.10" waitingCount="1" stopTime="0.00" timeLoss="47.00" rerouteNo="0" devices="tripinfo_L0-HDV-32 emissions_L0-HDV-32 ssm_L0-HDV-32" vType="L0-HDV-Straight-92" speedFactor="0.87" vaporized="">
        <emissions CO_abs="7937.364139" CO2_abs="275646.492217" HC_abs="42.465124" PMx_abs="5.138858" NOx_abs="113.367727" fuel_abs="118.491480" electricity_abs="0"/>
    </tripinfo>