<configuration>
    <input>
        <net-file value="../CollisionIntersection.net.xml"/>
        <route-files value="../CrashedVehicleRoutes.rou.xml, Route-Files/L0-HDV-Route.rou.xml"/>
        <additional-files value="../Additional-Files/Collision-Detectors.add.xml, ../Additional-Files/Collision-TMS-Rerouters.add.xml,
        PreparingVehicleModels/Vehicle-Models/L0-HDV.add.xml, PreparingVehicleModels/Vehicle-Models/L0-HDV-Left.add.xml,  PreparingVehicleModels/Vehicle-Models/L0-HDV-Straight.add.xml,
        ../Additional-Files/Collision-Traffic-lights.add.xml, ../Additional-Files/Collision-Traffic-Signs.add.xml"/>
    </input>
    <time>
        <begin value="0" />
        <step-length value="0.1" />
    </time>
    <processing>
        <default.action-step-length value="0.1"/>
    </processing>
</configuration>