<routes>
    <vType id="car"
   			vClass="passenger" length="5" accel="2.5" decel="2.2"
   			sigma="1.0" maxSpeed="10" color="green"/>


    <vType id="crashedCar"
   			vClass="passenger" length="5" accel="4.5" decel="2.2"
   			sigma="1.0" maxSpeed="10" color="yellow"/>

    <vType id="stoppedVehicle"
   			vClass="truck" length="10" accel="2.5" decel="2.2"
   			sigma="1.0" maxSpeed="10" color="blue"/>

    <vehicles>
        
        <flow id="crashed-car-lane-zero" begin="0" end="10"  type="car" number="2" departLane="random">
            <route edges="top-approaching left-exit" color="green" />
        </flow>
        <flow id="crashed-car-lane-one" begin="0" end="10"  type="car" number="1" departLane="random">
            <route edges="top-approaching left-exit" color="green" />
        </flow>


        <!-- <flow id="Car-Route-Left2Top" begin="10" end="100"  type="car" number="2" departLane="random">
            <route edges="left-approaching top-exit" color="green" />
        </flow>
        <flow id="Car-Route-Left2Right" begin="10" end="100" type="car" number="2" departLane="random">
            <route edges="left-approaching right-exit" />
        </flow>
        <flow id="Car-Route-Left2Bottom" begin="10" end="100" type="car" number="2" departLane="random">
            <route edges="left-approaching bottom-exit" />
        </flow> -->

        <flow id="Car-Route-Top2Right" begin="10" end="100" type="car" number="5" departLane="random">
            <route edges="top-approaching right-exit" color="red"/>
        </flow>
        <flow id="Car-Route-Top2Bottom" begin="10" end="100" type="car" number="5" departLane="random">
            <route edges="top-approaching bottom-exit" color="yellow" />
        </flow>
        <!-- <flow id="Car-Route-Top2Left" begin="10" end="100" type="car" number="1" departLane="random">
            <route edges="top-approaching left-exit" color="blue"  />
        </flow> -->

        <flow id="Car-Route-Right2Bottom" begin="10" end="1000" type="car" number="2" departLane="random">
            <route edges="right-approaching bottom-exit" />
        </flow>
        <!-- <flow id="Car-Route-Right2Left" begin="10" end="100" type="car" number="2" departLane="random">
            <route edges="right-approaching left-exit" />
        </flow> -->
        <flow id="Car-Route-Right2Top" begin="10" end="1000" type="car" number="2" departLane="random">
            <route edges="right-approaching top-exit" />
        </flow>

        
        <flow id="Car-Route-Bottom2Left" begin="10" end="100" type="car" number="1" departLane="random">
            <route edges="bottom-approaching left-exit" />
        </flow>
        <flow id="Car-Route-Bottom2Top" begin="10" end="100"  type="car" number="5" departLane="random">
            <route edges="bottom-approaching top-exit" />
        </flow>
        <flow id="Car-Route-Bottom2Right" begin="10" end="100" type="car" number="5" departLane="random">
            <route edges="bottom-approaching right-exit" />
        </flow>  
        
        
       

    </vehicles>
</routes>

