<configuration>
    <input>
        <node-files value="CollisionNode.nod.xml"/>
        <edge-files value="CollisionEdge.edg.xml"/>
        <connection-files value="CollisionConnection.con.xml"/>
        <opposites.guess  value ="true"/>
        <opposites.guess.fix-lengths  value ="true"/>
    </input>
    <output>
        <output-file value="CollisionIntersection.net.xml"/>
    </output>
    <report>
        <verbose value="true"/>
    </report>
</configuration>