<configuration>
    <input>
        <net-file value="CollisionIntersection.net.xml"/>
        <route-files value="CollisionRoutes.rou.xml"/>
        <additional-files value="CollisionAdditional.add.xml"/>
    </input>
</configuration>