<?xml version="1.0" encoding="UTF-8"?>

<!-- generated on 03/21/21 15:28:06 by Eclipse SUMO netconvert Version 1.8.0
<configuration xmlns:xsi="http://www.w3.org/2001/XMLSchema-instance" xsi:noNamespaceSchemaLocation="http://sumo.dlr.de/xsd/netconvertConfiguration.xsd">

    <input>
        <node-files value="NetworkSetup/CollisionNode.nod.xml"/>
        <edge-files value="NetworkSetup/CollisionEdge.edg.xml"/>
        <connection-files value="NetworkSetup/CollisionConnection.con.xml"/>
    </input>

    <output>
        <output-file value="CollisionIntersection.net.xml"/>
    </output>

    <processing>
        <opposites.guess value="true"/>
        <opposites.guess.fix-lengths value="true"/>
    </processing>

    <junctions>
        <no-turnarounds value="true"/>
    </junctions>

    <report>
        <verbose value="true"/>
        <aggregate-warnings value="5"/>
    </report>

</configuration>
-->

<net version="1.6" junctionCornerDetail="5" limitTurnSpeed="5.50" xmlns:xsi="http://www.w3.org/2001/XMLSchema-instance" xsi:noNamespaceSchemaLocation="http://sumo.dlr.de/xsd/net_file.xsd">

    <location netOffset="900.00,500.00" convBoundary="0.00,0.00,1400.00,1000.00" origBoundary="-900.00,-500.00,500.00,500.00" projParameter="!"/>

    <edge id=":center_0" function="internal">
        <lane id=":center_0_0" index="0" speed="7.33" length="11.73" shape="892.00,513.60 891.65,509.75 890.60,507.00 888.85,505.35 886.40,504.80"/>
    </edge>
    <edge id=":center_1" function="internal">
        <lane id=":center_1_0" index="0" speed="8.10" length="14.57" shape="892.00,513.60 891.65,508.35 890.60,504.60 888.85,502.35 886.40,501.60"/>
    </edge>
    <edge id=":center_2" function="internal">
        <lane id=":center_2_0" index="0" speed="16.67" length="27.20" shape="895.20,513.60 895.20,486.40"/>
    </edge>
    <edge id=":center_3" function="internal">
        <lane id=":center_3_0" index="0" speed="10.36" length="13.42" shape="898.40,513.60 899.35,506.95 902.20,502.20 903.20,501.60"/>
    </edge>
    <edge id=":center_15" function="internal">
        <lane id=":center_15_0" index="0" speed="10.36" length="11.09" shape="903.20,501.60 906.95,499.35 913.60,498.40"/>
    </edge>
    <edge id=":center_4" function="internal">
        <lane id=":center_4_0" index="0" speed="7.33" length="11.73" shape="913.60,508.00 909.75,508.35 907.00,509.40 905.35,511.15 904.80,513.60"/>
    </edge>
    <edge id=":center_5" function="internal">
        <lane id=":center_5_0" index="0" speed="16.67" length="27.32" shape="913.60,504.80 886.40,504.80"/>
        <lane id=":center_5_1" index="1" speed="16.67" length="27.32" shape="913.60,504.80 904.98,504.30 898.61,503.20 892.94,502.10 886.40,501.60"/>
    </edge>
    <edge id=":center_7" function="internal">
        <lane id=":center_7_0" index="0" speed="10.36" length="13.42" shape="913.60,501.60 906.95,500.65 902.20,497.80 901.60,496.80"/>
    </edge>
    <edge id=":center_16" function="internal">
        <lane id=":center_16_0" index="0" speed="10.36" length="11.09" shape="901.60,496.80 899.35,493.05 898.40,486.40"/>
    </edge>
    <edge id=":center_8" function="internal">
        <lane id=":center_8_0" index="0" speed="7.33" length="11.73" shape="908.00,486.40 908.35,490.25 909.40,493.00 911.15,494.65 913.60,495.20"/>
    </edge>
    <edge id=":center_9" function="internal">
        <lane id=":center_9_0" index="0" speed="16.67" length="27.20" shape="904.80,486.40 904.80,513.60"/>
    </edge>
    <edge id=":center_10" function="internal">
        <lane id=":center_10_0" index="0" speed="10.36" length="13.42" shape="901.60,486.40 900.65,493.05 897.80,497.80 896.80,498.40"/>
    </edge>
    <edge id=":center_17" function="internal">
        <lane id=":center_17_0" index="0" speed="10.36" length="11.09" shape="896.80,498.40 893.05,500.65 886.40,501.60"/>
    </edge>
    <edge id=":center_11" function="internal">
        <lane id=":center_11_0" index="0" speed="7.33" length="11.73" shape="886.40,492.00 890.25,491.65 893.00,490.60 894.65,488.85 895.20,486.40"/>
    </edge>
    <edge id=":center_12" function="internal">
        <lane id=":center_12_0" index="0" speed="16.67" length="27.20" shape="886.40,495.20 913.60,495.20"/>
    </edge>
    <edge id=":center_13" function="internal">
        <lane id=":center_13_0" index="0" speed="11.36" length="17.50" shape="886.40,495.20 894.45,496.35 900.20,499.80 901.57,502.09"/>
    </edge>
    <edge id=":center_14" function="internal">
        <lane id=":center_14_0" index="0" speed="10.36" length="9.99" shape="886.40,498.40 893.05,499.35 895.86,501.04"/>
    </edge>
    <edge id=":center_18" function="internal">
        <lane id=":center_18_0" index="0" speed="11.36" length="12.17" shape="901.57,502.09 903.65,505.55 904.80,513.60"/>
    </edge>
    <edge id=":center_19" function="internal">
        <lane id=":center_19_0" index="0" speed="10.36" length="14.52" shape="895.86,501.04 897.80,502.20 900.65,506.95 901.60,513.60"/>
    </edge>
    <edge id=":split-left_0" function="internal">
        <lane id=":split-left_0_0" index="0" speed="16.67" length="0.10" shape="800.00,504.80 800.00,504.80"/>
        <lane id=":split-left_0_1" index="1" speed="16.67" length="0.10" shape="800.00,501.60 800.00,501.60">
            <neigh lane=":split-left_2_2"/>
        </lane>
    </edge>
    <edge id=":split-left_2" function="internal">
        <lane id=":split-left_2_0" index="0" speed="16.67" length="0.10" shape="800.00,492.00 800.00,492.00"/>
        <lane id=":split-left_2_1" index="1" speed="16.67" length="0.10" shape="800.00,495.20 800.00,495.20"/>
        <lane id=":split-left_2_2" index="2" speed="16.67" length="0.10" shape="800.00,498.40 800.00,498.40">
            <neigh lane=":split-left_0_1"/>
        </lane>
    </edge>

    <edge id="bottom-approaching" from="bottom-node" to="center" priority="78">
        <lane id="bottom-approaching_0" index="0" speed="16.67" length="486.40" shape="908.00,0.00 908.00,486.40"/>
        <lane id="bottom-approaching_1" index="1" speed="16.67" length="486.40" shape="904.80,0.00 904.80,486.40"/>
        <lane id="bottom-approaching_2" index="2" speed="16.67" length="486.40" shape="901.60,0.00 901.60,486.40">
            <neigh lane="bottom-exit_1"/>
        </lane>
    </edge>
    <edge id="bottom-exit" from="center" to="bottom-node" priority="46">
        <lane id="bottom-exit_0" index="0" speed="16.67" length="486.40" shape="895.20,486.40 895.20,0.00"/>
        <lane id="bottom-exit_1" index="1" speed="16.67" length="486.40" shape="898.40,486.40 898.40,0.00">
            <neigh lane="bottom-approaching_2"/>
        </lane>
    </edge>
    <edge id="left-exit" from="split-left" to="left-node" priority="46">
        <lane id="left-exit_0" index="0" speed="16.67" length="800.00" shape="800.00,504.80 0.00,504.80"/>
        <lane id="left-exit_1" index="1" speed="16.67" length="800.00" shape="800.00,501.60 0.00,501.60">
            <neigh lane="left-long-approaching_2"/>
        </lane>
    </edge>
    <edge id="left-exit-blockage" from="center" to="split-left" priority="46">
        <lane id="left-exit-blockage_0" index="0" speed="16.67" length="86.40" shape="886.40,504.80 800.00,504.80"/>
        <lane id="left-exit-blockage_1" index="1" speed="16.67" length="86.40" shape="886.40,501.60 800.00,501.60">
            <neigh lane="left-short-approaching_2"/>
        </lane>
    </edge>
    <edge id="left-long-approaching" from="left-node" to="split-left" priority="78">
        <lane id="left-long-approaching_0" index="0" speed="16.67" length="800.00" shape="0.00,492.00 800.00,492.00"/>
        <lane id="left-long-approaching_1" index="1" speed="16.67" length="800.00" shape="0.00,495.20 800.00,495.20"/>
        <lane id="left-long-approaching_2" index="2" speed="16.67" length="800.00" shape="0.00,498.40 800.00,498.40">
            <neigh lane="left-exit_1"/>
        </lane>
    </edge>
    <edge id="left-short-approaching" from="split-left" to="center" priority="78">
        <lane id="left-short-approaching_0" index="0" speed="16.67" length="86.40" shape="800.00,492.00 886.40,492.00"/>
        <lane id="left-short-approaching_1" index="1" speed="16.67" length="86.40" shape="800.00,495.20 886.40,495.20"/>
        <lane id="left-short-approaching_2" index="2" speed="16.67" length="86.40" shape="800.00,498.40 886.40,498.40">
            <neigh lane="left-exit-blockage_1"/>
        </lane>
    </edge>
    <edge id="right-approaching" from="right-node" to="center" priority="78">
        <lane id="right-approaching_0" index="0" speed="16.67" length="486.40" shape="1400.00,508.00 913.60,508.00"/>
        <lane id="right-approaching_1" index="1" speed="16.67" length="486.40" shape="1400.00,504.80 913.60,504.80"/>
        <lane id="right-approaching_2" index="2" speed="16.67" length="486.40" shape="1400.00,501.60 913.60,501.60">
            <neigh lane="right-exit_1"/>
        </lane>
    </edge>
    <edge id="right-exit" from="center" to="right-node" priority="46">
        <lane id="right-exit_0" index="0" speed="16.67" length="486.40" shape="913.60,495.20 1400.00,495.20"/>
        <lane id="right-exit_1" index="1" speed="16.67" length="486.40" shape="913.60,498.40 1400.00,498.40">
            <neigh lane="right-approaching_2"/>
        </lane>
    </edge>
    <edge id="top-approaching" from="top-node" to="center" priority="78">
        <lane id="top-approaching_0" index="0" speed="16.67" length="486.40" shape="892.00,1000.00 892.00,513.60"/>
        <lane id="top-approaching_1" index="1" speed="16.67" length="486.40" shape="895.20,1000.00 895.20,513.60"/>
        <lane id="top-approaching_2" index="2" speed="16.67" length="486.40" shape="898.40,1000.00 898.40,513.60">
            <neigh lane="top-exit_1"/>
        </lane>
    </edge>
    <edge id="top-exit" from="center" to="top-node" priority="46">
        <lane id="top-exit_0" index="0" speed="16.67" length="486.40" shape="904.80,513.60 904.80,1000.00"/>
        <lane id="top-exit_1" index="1" speed="16.67" length="486.40" shape="901.60,513.60 901.60,1000.00">
            <neigh lane="top-approaching_2"/>
        </lane>
    </edge>

    <tlLogic id="center" type="static" programID="0" offset="0">
        <phase duration="31" state="GGGgrrrrGGgrrrr"/>
        <phase duration="4"  state="yyygrrrryygrrrr"/>
        <phase duration="6"  state="rrrGrrrrrrGrrrr"/>
        <phase duration="4"  state="rrryrrrrrryrrrr"/>
        <phase duration="31" state="rrrrGGGgrrrGGgg"/>
        <phase duration="4"  state="rrrryyygrrryygg"/>
        <phase duration="6"  state="rrrrrrrGrrrrrGG"/>
        <phase duration="4"  state="rrrrrrryrrrrryy"/>
    </tlLogic>

    <junction id="bottom-node" type="dead_end" x="900.00" y="0.00" incLanes="bottom-exit_0 bottom-exit_1" intLanes="" shape="900.00,0.00 893.60,0.00 900.00,0.00"/>
    <junction id="center" type="traffic_light" x="900.00" y="500.00" incLanes="top-approaching_0 top-approaching_1 top-approaching_2 right-approaching_0 right-approaching_1 right-approaching_2 bottom-approaching_0 bottom-approaching_1 bottom-approaching_2 left-short-approaching_0 left-short-approaching_1 left-short-approaching_2" intLanes=":center_0_0 :center_1_0 :center_2_0 :center_15_0 :center_4_0 :center_5_0 :center_5_1 :center_16_0 :center_8_0 :center_9_0 :center_17_0 :center_11_0 :center_12_0 :center_18_0 :center_19_0" shape="890.40,513.60 906.40,513.60 907.20,511.38 908.20,510.60 909.60,510.04 911.40,509.71 913.60,509.60 913.60,493.60 911.38,492.80 910.60,491.80 910.04,490.40 909.71,488.60 909.60,486.40 893.60,486.40 892.80,488.62 891.80,489.40 890.40,489.96 888.60,490.29 886.40,490.40 886.40,506.40 888.62,507.20 889.40,508.20 889.96,509.60 890.29,511.40">
        <request index="0"  response="000000000000000" foes="000010001100000" cont="0"/>
        <request index="1"  response="000000000000000" foes="000010001100000" cont="0"/>
        <request index="2"  response="110000000000000" foes="111110001100000" cont="0"/>
        <request index="3"  response="110001010000000" foes="110001011100000" cont="1"/>
        <request index="4"  response="000001000000000" foes="110001000000000" cont="0"/>
        <request index="5"  response="000011000001111" foes="110011000001111" cont="0"/>
        <request index="6"  response="000011000001111" foes="110011000001111" cont="0"/>
        <request index="7"  response="001011000001000" foes="001011000001000" cont="1"/>
        <request index="8"  response="000000000000000" foes="001000000000000" cont="0"/>
        <request index="9"  response="110000010000000" foes="111000011111000" cont="0"/>
        <request index="10" response="110000010000111" foes="111000011100111" cont="1"/>
        <request index="11" response="000000000000100" foes="000000000000100" cont="0"/>
        <request index="12" response="000011100000100" foes="000011110000100" cont="0"/>
        <request index="13" response="000011001111100" foes="000011001111100" cont="1"/>
        <request index="14" response="000011001111100" foes="000011001111100" cont="1"/>
    </junction>
    <junction id="left-node" type="dead_end" x="0.00" y="500.00" incLanes="left-exit_0 left-exit_1" intLanes="" shape="0.00,500.00 0.00,506.40 0.00,500.00"/>
    <junction id="right-node" type="dead_end" x="1400.00" y="500.00" incLanes="right-exit_0 right-exit_1" intLanes="" shape="1400.00,500.00 1400.00,493.60 1400.00,500.00"/>
    <junction id="split-left" type="priority" x="800.00" y="500.00" incLanes="left-exit-blockage_0 left-exit-blockage_1 left-long-approaching_0 left-long-approaching_1 left-long-approaching_2" intLanes=":split-left_0_0 :split-left_0_1 :split-left_2_0 :split-left_2_1 :split-left_2_2" shape="800.00,506.40 800.00,490.40 800.00,506.40">
        <request index="0" response="00000" foes="00000" cont="0"/>
        <request index="1" response="00000" foes="00000" cont="0"/>
        <request index="2" response="00000" foes="00000" cont="0"/>
        <request index="3" response="00000" foes="00000" cont="0"/>
        <request index="4" response="00000" foes="00000" cont="0"/>
    </junction>
    <junction id="top-node" type="dead_end" x="900.00" y="1000.00" incLanes="top-exit_0 top-exit_1" intLanes="" shape="900.00,1000.00 906.40,1000.00 900.00,1000.00"/>

    <junction id=":center_15_0" type="internal" x="903.20" y="501.60" incLanes=":center_3_0 bottom-approaching_0 bottom-approaching_1" intLanes=":center_5_0 :center_5_1 :center_7_0 :center_8_0 :center_9_0 :center_12_0 :center_13_0 :center_14_0"/>
    <junction id=":center_16_0" type="internal" x="901.60" y="496.80" incLanes=":center_7_0 left-short-approaching_0 left-short-approaching_1" intLanes=":center_2_0 :center_3_0 :center_9_0 :center_10_0 :center_11_0 :center_12_0"/>
    <junction id=":center_17_0" type="internal" x="896.80" y="498.40" incLanes=":center_10_0 top-approaching_0 top-approaching_1" intLanes=":center_0_0 :center_1_0 :center_2_0 :center_5_0 :center_5_1 :center_7_0 :center_12_0 :center_13_0 :center_14_0"/>
    <junction id=":center_18_0" type="internal" x="901.57" y="502.09" incLanes=":center_13_0 right-approaching_0 right-approaching_1" intLanes=":center_2_0 :center_3_0 :center_4_0 :center_5_0 :center_5_1 :center_9_0 :center_10_0"/>
    <junction id=":center_19_0" type="internal" x="895.86" y="501.04" incLanes=":center_14_0 right-approaching_0 right-approaching_1" intLanes=":center_2_0 :center_3_0 :center_4_0 :center_5_0 :center_5_1 :center_9_0 :center_10_0"/>

    <connection from="bottom-approaching" to="right-exit" fromLane="0" toLane="0" via=":center_8_0" tl="center" linkIndex="8" dir="r" state="O"/>
    <connection from="bottom-approaching" to="top-exit" fromLane="1" toLane="0" via=":center_9_0" tl="center" linkIndex="9" dir="s" state="O"/>
    <connection from="bottom-approaching" to="left-exit-blockage" fromLane="2" toLane="1" via=":center_10_0" tl="center" linkIndex="10" dir="l" state="o"/>
    <connection from="left-exit-blockage" to="left-exit" fromLane="0" toLane="0" via=":split-left_0_0" dir="s" state="M"/>
    <connection from="left-exit-blockage" to="left-exit" fromLane="1" toLane="1" via=":split-left_0_1" dir="s" state="M"/>
    <connection from="left-long-approaching" to="left-short-approaching" fromLane="0" toLane="0" via=":split-left_2_0" dir="s" state="M"/>
    <connection from="left-long-approaching" to="left-short-approaching" fromLane="1" toLane="1" via=":split-left_2_1" dir="s" state="M"/>
    <connection from="left-long-approaching" to="left-short-approaching" fromLane="2" toLane="2" via=":split-left_2_2" dir="s" state="M"/>
    <connection from="left-short-approaching" to="bottom-exit" fromLane="0" toLane="0" via=":center_11_0" tl="center" linkIndex="11" dir="r" state="o"/>
    <connection from="left-short-approaching" to="right-exit" fromLane="1" toLane="0" via=":center_12_0" tl="center" linkIndex="12" dir="s" state="o"/>
    <connection from="left-short-approaching" to="top-exit" fromLane="1" toLane="0" via=":center_13_0" tl="center" linkIndex="13" dir="l" state="o"/>
    <connection from="left-short-approaching" to="top-exit" fromLane="2" toLane="1" via=":center_14_0" tl="center" linkIndex="14" dir="l" state="o"/>
    <connection from="right-approaching" to="top-exit" fromLane="0" toLane="0" via=":center_4_0" tl="center" linkIndex="4" dir="r" state="o"/>
    <connection from="right-approaching" to="left-exit-blockage" fromLane="1" toLane="0" via=":center_5_0" tl="center" linkIndex="5" dir="s" state="o"/>
    <connection from="right-approaching" to="left-exit-blockage" fromLane="1" toLane="1" via=":center_5_1" tl="center" linkIndex="6" dir="s" state="o"/>
    <connection from="right-approaching" to="bottom-exit" fromLane="2" toLane="1" via=":center_7_0" tl="center" linkIndex="7" dir="l" state="o"/>
    <connection from="top-approaching" to="left-exit-blockage" fromLane="0" toLane="0" via=":center_0_0" tl="center" linkIndex="0" dir="r" state="O"/>
    <connection from="top-approaching" to="left-exit-blockage" fromLane="0" toLane="1" via=":center_1_0" tl="center" linkIndex="1" dir="r" state="O"/>
    <connection from="top-approaching" to="bottom-exit" fromLane="1" toLane="0" via=":center_2_0" tl="center" linkIndex="2" dir="s" state="O"/>
    <connection from="top-approaching" to="right-exit" fromLane="2" toLane="1" via=":center_3_0" tl="center" linkIndex="3" dir="l" state="o"/>

    <connection from=":center_0" to="left-exit-blockage" fromLane="0" toLane="0" dir="r" state="M"/>
    <connection from=":center_1" to="left-exit-blockage" fromLane="0" toLane="1" dir="r" state="M"/>
    <connection from=":center_2" to="bottom-exit" fromLane="0" toLane="0" dir="s" state="M"/>
    <connection from=":center_3" to="right-exit" fromLane="0" toLane="1" via=":center_15_0" dir="l" state="m"/>
    <connection from=":center_15" to="right-exit" fromLane="0" toLane="1" dir="l" state="M"/>
    <connection from=":center_4" to="top-exit" fromLane="0" toLane="0" dir="r" state="M"/>
    <connection from=":center_5" to="left-exit-blockage" fromLane="0" toLane="0" dir="s" state="M"/>
    <connection from=":center_5" to="left-exit-blockage" fromLane="1" toLane="1" dir="s" state="M"/>
    <connection from=":center_7" to="bottom-exit" fromLane="0" toLane="1" via=":center_16_0" dir="l" state="m"/>
    <connection from=":center_16" to="bottom-exit" fromLane="0" toLane="1" dir="l" state="M"/>
    <connection from=":center_8" to="right-exit" fromLane="0" toLane="0" dir="r" state="M"/>
    <connection from=":center_9" to="top-exit" fromLane="0" toLane="0" dir="s" state="M"/>
    <connection from=":center_10" to="left-exit-blockage" fromLane="0" toLane="1" via=":center_17_0" dir="l" state="m"/>
    <connection from=":center_17" to="left-exit-blockage" fromLane="0" toLane="1" dir="l" state="M"/>
    <connection from=":center_11" to="bottom-exit" fromLane="0" toLane="0" dir="r" state="M"/>
    <connection from=":center_12" to="right-exit" fromLane="0" toLane="0" dir="s" state="M"/>
    <connection from=":center_13" to="top-exit" fromLane="0" toLane="0" via=":center_18_0" dir="l" state="m"/>
    <connection from=":center_18" to="top-exit" fromLane="0" toLane="0" dir="l" state="M"/>
    <connection from=":center_14" to="top-exit" fromLane="0" toLane="1" via=":center_19_0" dir="l" state="m"/>
    <connection from=":center_19" to="top-exit" fromLane="0" toLane="1" dir="l" state="M"/>
    <connection from=":split-left_0" to="left-exit" fromLane="0" toLane="0" dir="s" state="M"/>
    <connection from=":split-left_0" to="left-exit" fromLane="1" toLane="1" dir="s" state="M"/>
    <connection from=":split-left_2" to="left-short-approaching" fromLane="0" toLane="0" dir="s" state="M"/>
    <connection from=":split-left_2" to="left-short-approaching" fromLane="1" toLane="1" dir="s" state="M"/>
    <connection from=":split-left_2" to="left-short-approaching" fromLane="2" toLane="2" dir="s" state="M"/>

</net>
