<?xml version="1.0" ?><!-- generated on 03/29/21 00:12:35 by Eclipse SUMO duarouter Version 1.8.0
<configuration xmlns:xsi="http://www.w3.org/2001/XMLSchema-instance" xsi:noNamespaceSchemaLocation="http://sumo.dlr.de/xsd/duarouterConfiguration.xsd">

    <input>
        <net-file value="Roadworks/RoadworksIntersection.net.xml"/>
        <route-files value="trips.trips.xml"/>
    </input>

    <output>
        <output-file value="Roadworks/RealTMSPenetration2/Route-Files/L0-HDV-Route.rou.xml"/>
        <alternatives-output value="Roadworks/RealTMSPenetration2/Route-Files/L0-HDV-Route.rou.alt.xml"/>
    </output>

    <time>
        <begin value="0"/>
        <end value="3600"/>
    </time>

    <report>
        <no-warnings value="true"/>
        <ignore-errors value="true"/>
        <no-step-log value="true"/>
    </report>

</configuration>
--><routes xmlns:xsi="http://www.w3.org/2001/XMLSchema-instance" xsi:noNamespaceSchemaLocation="http://sumo.dlr.de/xsd/routes_file.xsd">
    <vehicle id="L0-HDV-1" type="L0-HDV-" depart="2.69">
        <route edges="bottom-approaching top-exit"/>
    </vehicle>
    <vehicle id="L0-HDV-3" type="L0-HDV-" depart="8.07">
        <route edges="top-approaching bottom-exit"/>
    </vehicle>
    <vehicle id="L0-HDV-5" type="L0-HDV-" depart="13.45">
        <route edges="bottom-approaching closed-lane remerging-lane left-exit"/>
    </vehicle>
    <vehicle id="L0-HDV-6" type="L0-HDV-" depart="16.14">
        <route edges="right-approaching closed-lane remerging-lane left-exit"/>
    </vehicle>
    <vehicle id="L0-HDV-7" type="L0-HDV-" depart="18.83">
        <route edges="right-approaching bottom-exit"/>
    </vehicle>
    <vehicle id="L0-HDV-9" type="L0-HDV-" depart="24.21">
        <route edges="right-approaching top-exit"/>
    </vehicle>
    <vehicle id="L0-HDV-10" type="L0-HDV-" depart="26.90">
        <route edges="right-approaching top-exit"/>
    </vehicle>
    <vehicle id="L0-HDV-11" type="L0-HDV-Straight-" depart="29.59">
        <route edges="left-long-approaching preparation left-short-approaching right-exit"/>
    </vehicle>
    <vehicle id="L0-HDV-12" type="L0-HDV-" depart="32.28">
        <route edges="bottom-approaching closed-lane remerging-lane left-exit"/>
    </vehicle>
    <vehicle id="L0-HDV-14" type="L0-HDV-" depart="37.66">
        <route edges="left-long-approaching preparation left-short-approaching bottom-exit"/>
    </vehicle>
    <vehicle id="L0-HDV-15" type="L0-HDV-" depart="40.35">
        <route edges="left-long-approaching preparation left-short-approaching bottom-exit"/>
    </vehicle>
    <vehicle id="L0-HDV-16" type="L0-HDV-Left-" depart="43.04">
        <route edges="left-long-approaching preparation"/>
    </vehicle>
    <vehicle id="L0-HDV-17" type="L0-HDV-" depart="45.73">
        <route edges="bottom-approaching top-exit"/>
    </vehicle>
    <vehicle id="L0-HDV-18" type="L0-HDV-" depart="48.42">
        <route edges="top-approaching bottom-exit"/>
    </vehicle>
    <vehicle id="L0-HDV-20" type="L0-HDV-" depart="53.80">
        <route edges="bottom-approaching closed-lane remerging-lane left-exit"/>
    </vehicle>
    <vehicle id="L0-HDV-21" type="L0-HDV-" depart="56.49">
        <route edges="top-approaching bottom-exit"/>
    </vehicle>
    <vehicle id="L0-HDV-22" type="L0-HDV-" depart="59.18">
        <route edges="right-approaching bottom-exit"/>
    </vehicle>
    <vehicle id="L0-HDV-23" type="L0-HDV-" depart="61.87">
        <route edges="right-approaching top-exit"/>
    </vehicle>
    <vehicle id="L0-HDV-25" type="L0-HDV-" depart="67.25">
        <route edges="bottom-approaching right-exit"/>
    </vehicle>
    <vehicle id="L0-HDV-27" type="L0-HDV-Left-" depart="72.63">
        <route edges="left-long-approaching preparation"/>
    </vehicle>
    <vehicle id="L0-HDV-29" type="L0-HDV-" depart="78.01">
        <route edges="right-approaching bottom-exit"/>
    </vehicle>
    <vehicle id="L0-HDV-30" type="L0-HDV-" depart="80.70">
        <route edges="right-approaching bottom-exit"/>
    </vehicle>
    <vehicle id="L0-HDV-31" type="L0-HDV-" depart="83.39">
        <route edges="right-approaching top-exit"/>
    </vehicle>
    <vehicle id="L0-HDV-32" type="L0-HDV-" depart="86.08">
        <route edges="bottom-approaching right-exit"/>
    </vehicle>
    <vehicle id="L0-HDV-33" type="L0-HDV-" depart="88.77">
        <route edges="right-approaching bottom-exit"/>
    </vehicle>
    <vehicle id="L0-HDV-34" type="L0-HDV-Left-" depart="91.46">
        <route edges="left-long-approaching preparation"/>
    </vehicle>
    <vehicle id="L0-HDV-35" type="L0-HDV-" depart="94.15">
        <route edges="top-approaching bottom-exit"/>
    </vehicle>
    <vehicle id="L0-HDV-36" type="L0-HDV-" depart="96.84">
        <route edges="right-approaching top-exit"/>
    </vehicle>
    <vehicle id="L0-HDV-37" type="L0-HDV-" depart="99.53">
        <route edges="bottom-approaching right-exit"/>
    </vehicle>
    <vehicle id="L0-HDV-38" type="L0-HDV-" depart="102.22">
        <route edges="bottom-approaching closed-lane remerging-lane left-exit"/>
    </vehicle>
    <vehicle id="L0-HDV-40" type="L0-HDV-" depart="107.60">
        <route edges="top-approaching bottom-exit"/>
    </vehicle>
    <vehicle id="L0-HDV-41" type="L0-HDV-Left-" depart="110.29">
        <route edges="left-long-approaching preparation"/>
    </vehicle>
    <vehicle id="L0-HDV-42" type="L0-HDV-" depart="112.98">
        <route edges="right-approaching closed-lane remerging-lane left-exit"/>
    </vehicle>
    <vehicle id="L0-HDV-43" type="L0-HDV-Left-" depart="115.67">
        <route edges="left-long-approaching preparation"/>
    </vehicle>
    <vehicle id="L0-HDV-44" type="L0-HDV-" depart="118.36">
        <route edges="right-approaching bottom-exit"/>
    </vehicle>
    <vehicle id="L0-HDV-45" type="L0-HDV-" depart="121.05">
        <route edges="top-approaching closed-lane remerging-lane left-exit"/>
    </vehicle>
    <vehicle id="L0-HDV-46" type="L0-HDV-" depart="123.74">
        <route edges="left-long-approaching preparation left-short-approaching bottom-exit"/>
    </vehicle>
    <vehicle id="L0-HDV-48" type="L0-HDV-" depart="129.12">
        <route edges="bottom-approaching right-exit"/>
    </vehicle>
    <vehicle id="L0-HDV-49" type="L0-HDV-" depart="131.81">
        <route edges="bottom-approaching top-exit"/>
    </vehicle>
    <vehicle id="L0-HDV-50" type="L0-HDV-" depart="134.50">
        <route edges="bottom-approaching top-exit"/>
    </vehicle>
    <vehicle id="L0-HDV-52" type="L0-HDV-" depart="139.88">
        <route edges="right-approaching closed-lane remerging-lane left-exit"/>
    </vehicle>
    <vehicle id="L0-HDV-53" type="L0-HDV-" depart="142.57">
        <route edges="right-approaching closed-lane remerging-lane left-exit"/>
    </vehicle>
    <vehicle id="L0-HDV-54" type="L0-HDV-" depart="145.26">
        <route edges="bottom-approaching top-exit"/>
    </vehicle>
    <vehicle id="L0-HDV-56" type="L0-HDV-" depart="150.64">
        <route edges="top-approaching closed-lane remerging-lane left-exit"/>
    </vehicle>
    <vehicle id="L0-HDV-57" type="L0-HDV-" depart="153.33">
        <route edges="right-approaching bottom-exit"/>
    </vehicle>
    <vehicle id="L0-HDV-58" type="L0-HDV-" depart="156.02">
        <route edges="top-approaching closed-lane remerging-lane left-exit"/>
    </vehicle>
    <vehicle id="L0-HDV-59" type="L0-HDV-" depart="158.71">
        <route edges="bottom-approaching top-exit"/>
    </vehicle>
    <vehicle id="L0-HDV-60" type="L0-HDV-" depart="161.40">
        <route edges="bottom-approaching top-exit"/>
    </vehicle>
    <vehicle id="L0-HDV-61" type="L0-HDV-" depart="164.09">
        <route edges="top-approaching right-exit"/>
    </vehicle>
    <vehicle id="L0-HDV-63" type="L0-HDV-" depart="169.47">
        <route edges="bottom-approaching closed-lane remerging-lane left-exit"/>
    </vehicle>
    <vehicle id="L0-HDV-64" type="L0-HDV-" depart="172.16">
        <route edges="right-approaching top-exit"/>
    </vehicle>
    <vehicle id="L0-HDV-65" type="L0-HDV-" depart="174.85">
        <route edges="left-long-approaching preparation left-short-approaching bottom-exit"/>
    </vehicle>
    <vehicle id="L0-HDV-66" type="L0-HDV-" depart="177.54">
        <route edges="right-approaching bottom-exit"/>
    </vehicle>
    <vehicle id="L0-HDV-67" type="L0-HDV-" depart="180.23">
        <route edges="bottom-approaching right-exit"/>
    </vehicle>
    <vehicle id="L0-HDV-68" type="L0-HDV-" depart="182.92">
        <route edges="right-approaching bottom-exit"/>
    </vehicle>
    <vehicle id="L0-HDV-69" type="L0-HDV-Straight-" depart="185.61">
        <route edges="left-long-approaching preparation left-short-approaching right-exit"/>
    </vehicle>
    <vehicle id="L0-HDV-70" type="L0-HDV-" depart="188.30">
        <route edges="top-approaching closed-lane remerging-lane left-exit"/>
    </vehicle>
    <vehicle id="L0-HDV-71" type="L0-HDV-" depart="190.99">
        <route edges="top-approaching bottom-exit"/>
    </vehicle>
    <vehicle id="L0-HDV-72" type="L0-HDV-" depart="193.68">
        <route edges="right-approaching top-exit"/>
    </vehicle>
    <vehicle id="L0-HDV-73" type="L0-HDV-" depart="196.37">
        <route edges="top-approaching closed-lane remerging-lane left-exit"/>
    </vehicle>
    <vehicle id="L0-HDV-75" type="L0-HDV-" depart="201.75">
        <route edges="right-approaching bottom-exit"/>
    </vehicle>
    <vehicle id="L0-HDV-76" type="L0-HDV-" depart="204.44">
        <route edges="right-approaching bottom-exit"/>
    </vehicle>
    <vehicle id="L0-HDV-77" type="L0-HDV-" depart="207.13">
        <route edges="top-approaching bottom-exit"/>
    </vehicle>
    <vehicle id="L0-HDV-79" type="L0-HDV-Straight-" depart="212.51">
        <route edges="left-long-approaching preparation left-short-approaching right-exit"/>
    </vehicle>
    <vehicle id="L0-HDV-80" type="L0-HDV-" depart="215.20">
        <route edges="left-long-approaching preparation left-short-approaching bottom-exit"/>
    </vehicle>
    <vehicle id="L0-HDV-81" type="L0-HDV-Left-" depart="217.89">
        <route edges="left-long-approaching preparation"/>
    </vehicle>
    <vehicle id="L0-HDV-82" type="L0-HDV-" depart="220.58">
        <route edges="right-approaching top-exit"/>
    </vehicle>
    <vehicle id="L0-HDV-83" type="L0-HDV-" depart="223.27">
        <route edges="bottom-approaching top-exit"/>
    </vehicle>
    <vehicle id="L0-HDV-84" type="L0-HDV-" depart="225.96">
        <route edges="top-approaching right-exit"/>
    </vehicle>
    <vehicle id="L0-HDV-86" type="L0-HDV-" depart="231.34">
        <route edges="top-approaching bottom-exit"/>
    </vehicle>
    <vehicle id="L0-HDV-88" type="L0-HDV-Straight-" depart="236.72">
        <route edges="left-long-approaching preparation left-short-approaching right-exit"/>
    </vehicle>
    <vehicle id="L0-HDV-89" type="L0-HDV-" depart="239.41">
        <route edges="right-approaching bottom-exit"/>
    </vehicle>
    <vehicle id="L0-HDV-90" type="L0-HDV-" depart="242.10">
        <route edges="right-approaching closed-lane remerging-lane left-exit"/>
    </vehicle>
    <vehicle id="L0-HDV-91" type="L0-HDV-Straight-" depart="244.79">
        <route edges="left-long-approaching preparation left-short-approaching right-exit"/>
    </vehicle>
    <vehicle id="L0-HDV-92" type="L0-HDV-" depart="247.48">
        <route edges="bottom-approaching right-exit"/>
    </vehicle>
    <vehicle id="L0-HDV-93" type="L0-HDV-Left-" depart="250.17">
        <route edges="left-long-approaching preparation"/>
    </vehicle>
    <vehicle id="L0-HDV-94" type="L0-HDV-" depart="252.86">
        <route edges="bottom-approaching top-exit"/>
    </vehicle>
    <vehicle id="L0-HDV-96" type="L0-HDV-" depart="258.24">
        <route edges="top-approaching bottom-exit"/>
    </vehicle>
    <vehicle id="L0-HDV-98" type="L0-HDV-" depart="263.62">
        <route edges="right-approaching closed-lane remerging-lane left-exit"/>
    </vehicle>
    <vehicle id="L0-HDV-100" type="L0-HDV-" depart="269.00">
        <route edges="right-approaching bottom-exit"/>
    </vehicle>
    <vehicle id="L0-HDV-101" type="L0-HDV-" depart="271.69">
        <route edges="bottom-approaching closed-lane remerging-lane left-exit"/>
    </vehicle>
    <vehicle id="L0-HDV-102" type="L0-HDV-Straight-" depart="274.38">
        <route edges="left-long-approaching preparation left-short-approaching right-exit"/>
    </vehicle>
    <vehicle id="L0-HDV-103" type="L0-HDV-" depart="277.07">
        <route edges="bottom-approaching top-exit"/>
    </vehicle>
    <vehicle id="L0-HDV-104" type="L0-HDV-Left-" depart="279.76">
        <route edges="left-long-approaching preparation"/>
    </vehicle>
    <vehicle id="L0-HDV-105" type="L0-HDV-" depart="282.45">
        <route edges="bottom-approaching top-exit"/>
    </vehicle>
    <vehicle id="L0-HDV-106" type="L0-HDV-" depart="285.14">
        <route edges="right-approaching top-exit"/>
    </vehicle>
    <vehicle id="L0-HDV-108" type="L0-HDV-" depart="290.52">
        <route edges="bottom-approaching closed-lane remerging-lane left-exit"/>
    </vehicle>
    <vehicle id="L0-HDV-109" type="L0-HDV-" depart="293.21">
        <route edges="bottom-approaching top-exit"/>
    </vehicle>
    <vehicle id="L0-HDV-113" type="L0-HDV-Straight-" depart="303.97">
        <route edges="left-long-approaching preparation left-short-approaching right-exit"/>
    </vehicle>
    <vehicle id="L0-HDV-114" type="L0-HDV-Straight-" depart="306.66">
        <route edges="left-long-approaching preparation left-short-approaching right-exit"/>
    </vehicle>
    <vehicle id="L0-HDV-115" type="L0-HDV-Straight-" depart="309.35">
        <route edges="left-long-approaching preparation left-short-approaching right-exit"/>
    </vehicle>
    <vehicle id="L0-HDV-116" type="L0-HDV-" depart="312.04">
        <route edges="bottom-approaching closed-lane remerging-lane left-exit"/>
    </vehicle>
    <vehicle id="L0-HDV-117" type="L0-HDV-" depart="314.73">
        <route edges="right-approaching bottom-exit"/>
    </vehicle>
    <vehicle id="L0-HDV-118" type="L0-HDV-Left-" depart="317.42">
        <route edges="left-long-approaching preparation"/>
    </vehicle>
    <vehicle id="L0-HDV-120" type="L0-HDV-" depart="322.80">
        <route edges="top-approaching bottom-exit"/>
    </vehicle>
    <vehicle id="L0-HDV-121" type="L0-HDV-Left-" depart="325.49">
        <route edges="left-long-approaching preparation"/>
    </vehicle>
    <vehicle id="L0-HDV-122" type="L0-HDV-" depart="328.18">
        <route edges="right-approaching bottom-exit"/>
    </vehicle>
    <vehicle id="L0-HDV-123" type="L0-HDV-" depart="330.87">
        <route edges="bottom-approaching closed-lane remerging-lane left-exit"/>
    </vehicle>
    <vehicle id="L0-HDV-124" type="L0-HDV-Left-" depart="333.56">
        <route edges="left-long-approaching preparation"/>
    </vehicle>
    <vehicle id="L0-HDV-128" type="L0-HDV-" depart="344.32">
        <route edges="top-approaching bottom-exit"/>
    </vehicle>
    <vehicle id="L0-HDV-129" type="L0-HDV-" depart="347.01">
        <route edges="left-long-approaching preparation left-short-approaching bottom-exit"/>
    </vehicle>
    <vehicle id="L0-HDV-130" type="L0-HDV-" depart="349.70">
        <route edges="right-approaching closed-lane remerging-lane left-exit"/>
    </vehicle>
    <vehicle id="L0-HDV-131" type="L0-HDV-Left-" depart="352.39">
        <route edges="left-long-approaching preparation"/>
    </vehicle>
    <vehicle id="L0-HDV-132" type="L0-HDV-" depart="355.08">
        <route edges="left-long-approaching preparation left-short-approaching bottom-exit"/>
    </vehicle>
    <vehicle id="L0-HDV-135" type="L0-HDV-" depart="363.15">
        <route edges="left-long-approaching preparation left-short-approaching bottom-exit"/>
    </vehicle>
    <vehicle id="L0-HDV-137" type="L0-HDV-" depart="368.53">
        <route edges="bottom-approaching right-exit"/>
    </vehicle>
    <vehicle id="L0-HDV-138" type="L0-HDV-" depart="371.22">
        <route edges="bottom-approaching right-exit"/>
    </vehicle>
    <vehicle id="L0-HDV-139" type="L0-HDV-" depart="373.91">
        <route edges="right-approaching bottom-exit"/>
    </vehicle>
    <vehicle id="L0-HDV-140" type="L0-HDV-" depart="376.60">
        <route edges="right-approaching closed-lane remerging-lane left-exit"/>
    </vehicle>
    <vehicle id="L0-HDV-141" type="L0-HDV-Straight-" depart="379.29">
        <route edges="left-long-approaching preparation left-short-approaching right-exit"/>
    </vehicle>
    <vehicle id="L0-HDV-143" type="L0-HDV-" depart="384.67">
        <route edges="right-approaching bottom-exit"/>
    </vehicle>
    <vehicle id="L0-HDV-144" type="L0-HDV-" depart="387.36">
        <route edges="right-approaching closed-lane remerging-lane left-exit"/>
    </vehicle>
    <vehicle id="L0-HDV-145" type="L0-HDV-" depart="390.05">
        <route edges="bottom-approaching right-exit"/>
    </vehicle>
    <vehicle id="L0-HDV-146" type="L0-HDV-Left-" depart="392.74">
        <route edges="left-long-approaching preparation"/>
    </vehicle>
    <vehicle id="L0-HDV-147" type="L0-HDV-Left-" depart="395.43">
        <route edges="left-long-approaching preparation"/>
    </vehicle>
    <vehicle id="L0-HDV-148" type="L0-HDV-" depart="398.12">
        <route edges="right-approaching bottom-exit"/>
    </vehicle>
    <vehicle id="L0-HDV-149" type="L0-HDV-" depart="400.81">
        <route edges="right-approaching closed-lane remerging-lane left-exit"/>
    </vehicle>
    <vehicle id="L0-HDV-150" type="L0-HDV-" depart="403.50">
        <route edges="right-approaching bottom-exit"/>
    </vehicle>
    <vehicle id="L0-HDV-151" type="L0-HDV-" depart="406.19">
        <route edges="bottom-approaching top-exit"/>
    </vehicle>
    <vehicle id="L0-HDV-155" type="L0-HDV-" depart="416.95">
        <route edges="right-approaching closed-lane remerging-lane left-exit"/>
    </vehicle>
    <vehicle id="L0-HDV-156" type="L0-HDV-" depart="419.64">
        <route edges="top-approaching right-exit"/>
    </vehicle>
    <vehicle id="L0-HDV-157" type="L0-HDV-" depart="422.33">
        <route edges="bottom-approaching right-exit"/>
    </vehicle>
    <vehicle id="L0-HDV-160" type="L0-HDV-" depart="430.40">
        <route edges="bottom-approaching right-exit"/>
    </vehicle>
    <vehicle id="L0-HDV-161" type="L0-HDV-" depart="433.09">
        <route edges="top-approaching right-exit"/>
    </vehicle>
    <vehicle id="L0-HDV-162" type="L0-HDV-" depart="435.78">
        <route edges="bottom-approaching right-exit"/>
    </vehicle>
    <vehicle id="L0-HDV-163" type="L0-HDV-" depart="438.47">
        <route edges="bottom-approaching closed-lane remerging-lane left-exit"/>
    </vehicle>
    <vehicle id="L0-HDV-164" type="L0-HDV-" depart="441.16">
        <route edges="top-approaching right-exit"/>
    </vehicle>
    <vehicle id="L0-HDV-166" type="L0-HDV-" depart="446.54">
        <route edges="left-long-approaching preparation left-short-approaching bottom-exit"/>
    </vehicle>
    <vehicle id="L0-HDV-167" type="L0-HDV-Straight-" depart="449.23">
        <route edges="left-long-approaching preparation left-short-approaching right-exit"/>
    </vehicle>
    <vehicle id="L0-HDV-168" type="L0-HDV-" depart="451.92">
        <route edges="bottom-approaching closed-lane remerging-lane left-exit"/>
    </vehicle>
    <vehicle id="L0-HDV-169" type="L0-HDV-" depart="454.61">
        <route edges="right-approaching closed-lane remerging-lane left-exit"/>
    </vehicle>
    <vehicle id="L0-HDV-171" type="L0-HDV-" depart="459.99">
        <route edges="top-approaching bottom-exit"/>
    </vehicle>
    <vehicle id="L0-HDV-172" type="L0-HDV-" depart="462.68">
        <route edges="bottom-approaching top-exit"/>
    </vehicle>
    <vehicle id="L0-HDV-173" type="L0-HDV-" depart="465.37">
        <route edges="right-approaching bottom-exit"/>
    </vehicle>
    <vehicle id="L0-HDV-175" type="L0-HDV-" depart="470.75">
        <route edges="right-approaching top-exit"/>
    </vehicle>
    <vehicle id="L0-HDV-177" type="L0-HDV-" depart="476.13">
        <route edges="right-approaching closed-lane remerging-lane left-exit"/>
    </vehicle>
    <vehicle id="L0-HDV-179" type="L0-HDV-" depart="481.51">
        <route edges="top-approaching right-exit"/>
    </vehicle>
    <vehicle id="L0-HDV-180" type="L0-HDV-" depart="484.20">
        <route edges="left-long-approaching preparation left-short-approaching bottom-exit"/>
    </vehicle>
    <vehicle id="L0-HDV-181" type="L0-HDV-" depart="486.89">
        <route edges="top-approaching closed-lane remerging-lane left-exit"/>
    </vehicle>
    <vehicle id="L0-HDV-182" type="L0-HDV-Straight-" depart="489.58">
        <route edges="left-long-approaching preparation left-short-approaching right-exit"/>
    </vehicle>
    <vehicle id="L0-HDV-183" type="L0-HDV-" depart="492.27">
        <route edges="top-approaching right-exit"/>
    </vehicle>
    <vehicle id="L0-HDV-185" type="L0-HDV-" depart="497.65">
        <route edges="bottom-approaching closed-lane remerging-lane left-exit"/>
    </vehicle>
    <vehicle id="L0-HDV-187" type="L0-HDV-" depart="503.03">
        <route edges="top-approaching bottom-exit"/>
    </vehicle>
    <vehicle id="L0-HDV-188" type="L0-HDV-" depart="505.72">
        <route edges="right-approaching top-exit"/>
    </vehicle>
    <vehicle id="L0-HDV-190" type="L0-HDV-" depart="511.10">
        <route edges="top-approaching bottom-exit"/>
    </vehicle>
    <vehicle id="L0-HDV-191" type="L0-HDV-" depart="513.79">
        <route edges="bottom-approaching top-exit"/>
    </vehicle>
    <vehicle id="L0-HDV-192" type="L0-HDV-" depart="516.48">
        <route edges="right-approaching bottom-exit"/>
    </vehicle>
    <vehicle id="L0-HDV-193" type="L0-HDV-" depart="519.17">
        <route edges="top-approaching closed-lane remerging-lane left-exit"/>
    </vehicle>
    <vehicle id="L0-HDV-194" type="L0-HDV-" depart="521.86">
        <route edges="bottom-approaching closed-lane remerging-lane left-exit"/>
    </vehicle>
    <vehicle id="L0-HDV-195" type="L0-HDV-" depart="524.55">
        <route edges="bottom-approaching closed-lane remerging-lane left-exit"/>
    </vehicle>
    <vehicle id="L0-HDV-196" type="L0-HDV-" depart="527.24">
        <route edges="top-approaching closed-lane remerging-lane left-exit"/>
    </vehicle>
    <vehicle id="L0-HDV-197" type="L0-HDV-" depart="529.93">
        <route edges="top-approaching bottom-exit"/>
    </vehicle>
    <vehicle id="L0-HDV-199" type="L0-HDV-" depart="535.31">
        <route edges="right-approaching bottom-exit"/>
    </vehicle>
    <vehicle id="L0-HDV-201" type="L0-HDV-" depart="540.69">
        <route edges="right-approaching top-exit"/>
    </vehicle>
    <vehicle id="L0-HDV-203" type="L0-HDV-" depart="546.07">
        <route edges="bottom-approaching closed-lane remerging-lane left-exit"/>
    </vehicle>
    <vehicle id="L0-HDV-204" type="L0-HDV-" depart="548.76">
        <route edges="top-approaching closed-lane remerging-lane left-exit"/>
    </vehicle>
    <vehicle id="L0-HDV-206" type="L0-HDV-" depart="554.14">
        <route edges="bottom-approaching top-exit"/>
    </vehicle>
    <vehicle id="L0-HDV-207" type="L0-HDV-" depart="556.83">
        <route edges="right-approaching bottom-exit"/>
    </vehicle>
    <vehicle id="L0-HDV-208" type="L0-HDV-" depart="559.52">
        <route edges="top-approaching right-exit"/>
    </vehicle>
    <vehicle id="L0-HDV-209" type="L0-HDV-Straight-" depart="562.21">
        <route edges="left-long-approaching preparation left-short-approaching right-exit"/>
    </vehicle>
    <vehicle id="L0-HDV-210" type="L0-HDV-" depart="564.90">
        <route edges="top-approaching closed-lane remerging-lane left-exit"/>
    </vehicle>
    <vehicle id="L0-HDV-212" type="L0-HDV-" depart="570.28">
        <route edges="bottom-approaching right-exit"/>
    </vehicle>
    <vehicle id="L0-HDV-213" type="L0-HDV-Left-" depart="572.97">
        <route edges="left-long-approaching preparation"/>
    </vehicle>
    <vehicle id="L0-HDV-215" type="L0-HDV-" depart="578.35">
        <route edges="left-long-approaching preparation left-short-approaching bottom-exit"/>
    </vehicle>
    <vehicle id="L0-HDV-216" type="L0-HDV-" depart="581.04">
        <route edges="left-long-approaching preparation left-short-approaching bottom-exit"/>
    </vehicle>
    <vehicle id="L0-HDV-217" type="L0-HDV-" depart="583.73">
        <route edges="bottom-approaching right-exit"/>
    </vehicle>
    <vehicle id="L0-HDV-218" type="L0-HDV-" depart="586.42">
        <route edges="top-approaching closed-lane remerging-lane left-exit"/>
    </vehicle>
    <vehicle id="L0-HDV-219" type="L0-HDV-" depart="589.11">
        <route edges="right-approaching closed-lane remerging-lane left-exit"/>
    </vehicle>
    <vehicle id="L0-HDV-220" type="L0-HDV-" depart="591.80">
        <route edges="top-approaching right-exit"/>
    </vehicle>
    <vehicle id="L0-HDV-221" type="L0-HDV-" depart="594.49">
        <route edges="bottom-approaching right-exit"/>
    </vehicle>
    <vehicle id="L0-HDV-223" type="L0-HDV-" depart="599.87">
        <route edges="bottom-approaching top-exit"/>
    </vehicle>
    <vehicle id="L0-HDV-224" type="L0-HDV-" depart="602.56">
        <route edges="right-approaching closed-lane remerging-lane left-exit"/>
    </vehicle>
    <vehicle id="L0-HDV-226" type="L0-HDV-" depart="607.94">
        <route edges="bottom-approaching right-exit"/>
    </vehicle>
    <vehicle id="L0-HDV-227" type="L0-HDV-" depart="610.63">
        <route edges="right-approaching top-exit"/>
    </vehicle>
    <vehicle id="L0-HDV-228" type="L0-HDV-" depart="613.32">
        <route edges="bottom-approaching right-exit"/>
    </vehicle>
    <vehicle id="L0-HDV-229" type="L0-HDV-" depart="616.01">
        <route edges="right-approaching top-exit"/>
    </vehicle>
    <vehicle id="L0-HDV-230" type="L0-HDV-Straight-" depart="618.70">
        <route edges="left-long-approaching preparation left-short-approaching right-exit"/>
    </vehicle>
    <vehicle id="L0-HDV-231" type="L0-HDV-" depart="621.39">
        <route edges="top-approaching closed-lane remerging-lane left-exit"/>
    </vehicle>
    <vehicle id="L0-HDV-232" type="L0-HDV-" depart="624.08">
        <route edges="right-approaching top-exit"/>
    </vehicle>
    <vehicle id="L0-HDV-233" type="L0-HDV-" depart="626.77">
        <route edges="bottom-approaching top-exit"/>
    </vehicle>
    <vehicle id="L0-HDV-235" type="L0-HDV-Left-" depart="632.15">
        <route edges="left-long-approaching preparation"/>
    </vehicle>
    <vehicle id="L0-HDV-237" type="L0-HDV-" depart="637.53">
        <route edges="bottom-approaching top-exit"/>
    </vehicle>
    <vehicle id="L0-HDV-238" type="L0-HDV-" depart="640.22">
        <route edges="top-approaching right-exit"/>
    </vehicle>
    <vehicle id="L0-HDV-239" type="L0-HDV-" depart="642.91">
        <route edges="bottom-approaching closed-lane remerging-lane left-exit"/>
    </vehicle>
    <vehicle id="L0-HDV-240" type="L0-HDV-" depart="645.60">
        <route edges="left-long-approaching preparation left-short-approaching bottom-exit"/>
    </vehicle>
    <vehicle id="L0-HDV-241" type="L0-HDV-" depart="648.29">
        <route edges="top-approaching closed-lane remerging-lane left-exit"/>
    </vehicle>
    <vehicle id="L0-HDV-242" type="L0-HDV-" depart="650.98">
        <route edges="top-approaching bottom-exit"/>
    </vehicle>
    <vehicle id="L0-HDV-243" type="L0-HDV-" depart="653.67">
        <route edges="right-approaching top-exit"/>
    </vehicle>
    <vehicle id="L0-HDV-244" type="L0-HDV-" depart="656.36">
        <route edges="right-approaching closed-lane remerging-lane left-exit"/>
    </vehicle>
    <vehicle id="L0-HDV-245" type="L0-HDV-" depart="659.05">
        <route edges="bottom-approaching closed-lane remerging-lane left-exit"/>
    </vehicle>
    <vehicle id="L0-HDV-246" type="L0-HDV-Left-" depart="661.74">
        <route edges="left-long-approaching preparation"/>
    </vehicle>
    <vehicle id="L0-HDV-248" type="L0-HDV-" depart="667.12">
        <route edges="top-approaching bottom-exit"/>
    </vehicle>
    <vehicle id="L0-HDV-249" type="L0-HDV-" depart="669.81">
        <route edges="bottom-approaching closed-lane remerging-lane left-exit"/>
    </vehicle>
    <vehicle id="L0-HDV-251" type="L0-HDV-" depart="675.19">
        <route edges="right-approaching bottom-exit"/>
    </vehicle>
    <vehicle id="L0-HDV-252" type="L0-HDV-" depart="677.88">
        <route edges="right-approaching closed-lane remerging-lane left-exit"/>
    </vehicle>
    <vehicle id="L0-HDV-253" type="L0-HDV-Left-" depart="680.57">
        <route edges="left-long-approaching preparation"/>
    </vehicle>
    <vehicle id="L0-HDV-254" type="L0-HDV-" depart="683.26">
        <route edges="bottom-approaching top-exit"/>
    </vehicle>
    <vehicle id="L0-HDV-256" type="L0-HDV-" depart="688.64">
        <route edges="bottom-approaching right-exit"/>
    </vehicle>
    <vehicle id="L0-HDV-257" type="L0-HDV-" depart="691.33">
        <route edges="top-approaching bottom-exit"/>
    </vehicle>
    <vehicle id="L0-HDV-258" type="L0-HDV-Straight-" depart="694.02">
        <route edges="left-long-approaching preparation left-short-approaching right-exit"/>
    </vehicle>
    <vehicle id="L0-HDV-259" type="L0-HDV-Straight-" depart="696.71">
        <route edges="left-long-approaching preparation left-short-approaching right-exit"/>
    </vehicle>
    <vehicle id="L0-HDV-260" type="L0-HDV-" depart="699.40">
        <route edges="right-approaching closed-lane remerging-lane left-exit"/>
    </vehicle>
    <vehicle id="L0-HDV-261" type="L0-HDV-" depart="702.09">
        <route edges="right-approaching top-exit"/>
    </vehicle>