<?xml version="1.0" ?><!-- generated on 03/30/21 22:56:10 by Eclipse SUMO duarouter Version 1.8.0
<configuration xmlns:xsi="http://www.w3.org/2001/XMLSchema-instance" xsi:noNamespaceSchemaLocation="http://sumo.dlr.de/xsd/duarouterConfiguration.xsd">

    <input>
        <net-file value="Roadworks/RoadworksIntersection.net.xml"/>
        <route-files value="trips.trips.xml"/>
    </input>

    <output>
        <output-file value="Roadworks/RealTMSPenetration2/Route-Files/L2-CV-Route.rou.xml"/>
        <alternatives-output value="Roadworks/RealTMSPenetration2/Route-Files/L2-CV-Route.rou.alt.xml"/>
    </output>

    <time>
        <begin value="0"/>
        <end value="3600"/>
    </time>

    <report>
        <no-warnings value="true"/>
        <ignore-errors value="true"/>
        <no-step-log value="true"/>
    </report>

</configuration>
--><routes xmlns:xsi="http://www.w3.org/2001/XMLSchema-instance" xsi:noNamespaceSchemaLocation="http://sumo.dlr.de/xsd/routes_file.xsd">
    <vehicle id="L2-CV-2" type="L2-CV-" depart="9.50">
        <route edges="top-approaching right-exit"/>
    </vehicle>
    <vehicle id="L2-CV-3" type="L2-CV-" depart="14.25">
        <route edges="right-approaching closed-lane remerging-lane left-exit"/>
    </vehicle>
    <vehicle id="L2-CV-5" type="L2-CV-" depart="23.75">
        <route edges="right-approaching bottom-exit"/>
    </vehicle>
    <vehicle id="L2-CV-7" type="L2-CV-" depart="33.25">
        <route edges="right-approaching top-exit"/>
    </vehicle>
    <vehicle id="L2-CV-8" type="L2-CV-" depart="38.00">
        <route edges="top-approaching right-exit"/>
    </vehicle>
    <vehicle id="L2-CV-12" type="L2-CV-Left-" depart="57.00">
        <route edges="left-long-approaching preparation"/>
    </vehicle>
    <vehicle id="L2-CV-15" type="L2-CV-Right-" depart="71.25">
        <route edges="left-long-approaching preparation left-short-approaching bottom-exit"/>
    </vehicle>
    <vehicle id="L2-CV-16" type="L2-CV-" depart="76.00">
        <route edges="right-approaching top-exit"/>
    </vehicle>
    <vehicle id="L2-CV-17" type="L2-CV-" depart="80.75">
        <route edges="right-approaching bottom-exit"/>
    </vehicle>
    <vehicle id="L2-CV-19" type="L2-CV-" depart="90.25">
        <route edges="right-approaching top-exit"/>
    </vehicle>
    <vehicle id="L2-CV-21" type="L2-CV-Left-" depart="99.75">
        <route edges="left-long-approaching preparation"/>
    </vehicle>
    <vehicle id="L2-CV-22" type="L2-CV-" depart="104.50">
        <route edges="top-approaching bottom-exit"/>
    </vehicle>
    <vehicle id="L2-CV-23" type="L2-CV-" depart="109.25">
        <route edges="top-approaching right-exit"/>
    </vehicle>
    <vehicle id="L2-CV-24" type="L2-CV-" depart="114.00">
        <route edges="left-long-approaching preparation left-short-approaching right-exit"/>
    </vehicle>
    <vehicle id="L2-CV-25" type="L2-CV-Left-" depart="118.75">
        <route edges="left-long-approaching preparation"/>
    </vehicle>
    <vehicle id="L2-CV-26" type="L2-CV-Left-" depart="123.50">
        <route edges="left-long-approaching preparation"/>
    </vehicle>
    <vehicle id="L2-CV-27" type="L2-CV-Left-" depart="128.25">
        <route edges="left-long-approaching preparation"/>
    </vehicle>
    <vehicle id="L2-CV-28" type="L2-CV-" depart="133.00">
        <route edges="top-approaching closed-lane remerging-lane left-exit"/>
    </vehicle>
    <vehicle id="L2-CV-29" type="L2-CV-" depart="137.75">
        <route edges="right-approaching top-exit"/>
    </vehicle>
    <vehicle id="L2-CV-30" type="L2-CV-" depart="142.50">
        <route edges="right-approaching closed-lane remerging-lane left-exit"/>
    </vehicle>
    <vehicle id="L2-CV-31" type="L2-CV-" depart="147.25">
        <route edges="bottom-approaching closed-lane remerging-lane left-exit"/>
    </vehicle>
    <vehicle id="L2-CV-32" type="L2-CV-" depart="152.00">
        <route edges="right-approaching bottom-exit"/>
    </vehicle>
    <vehicle id="L2-CV-33" type="L2-CV-" depart="156.75">
        <route edges="top-approaching closed-lane remerging-lane left-exit"/>
    </vehicle>
    <vehicle id="L2-CV-34" type="L2-CV-" depart="161.50">
        <route edges="top-approaching closed-lane remerging-lane left-exit"/>
    </vehicle>
    <vehicle id="L2-CV-35" type="L2-CV-" depart="166.25">
        <route edges="top-approaching right-exit"/>
    </vehicle>
    <vehicle id="L2-CV-38" type="L2-CV-Right-" depart="180.50">
        <route edges="left-long-approaching preparation left-short-approaching bottom-exit"/>
    </vehicle>
    <vehicle id="L2-CV-39" type="L2-CV-" depart="185.25">
        <route edges="right-approaching top-exit"/>
    </vehicle>
    <vehicle id="L2-CV-40" type="L2-CV-" depart="190.00">
        <route edges="right-approaching bottom-exit"/>
    </vehicle>
    <vehicle id="L2-CV-41" type="L2-CV-" depart="194.75">
        <route edges="top-approaching right-exit"/>
    </vehicle>
    <vehicle id="L2-CV-42" type="L2-CV-" depart="199.50">
        <route edges="top-approaching bottom-exit"/>
    </vehicle>
    <vehicle id="L2-CV-43" type="L2-CV-" depart="204.25">
        <route edges="right-approaching bottom-exit"/>
    </vehicle>
    <vehicle id="L2-CV-44" type="L2-CV-" depart="209.00">
        <route edges="right-approaching closed-lane remerging-lane left-exit"/>
    </vehicle>
    <vehicle id="L2-CV-45" type="L2-CV-" depart="213.75">
        <route edges="bottom-approaching top-exit"/>
    </vehicle>
    <vehicle id="L2-CV-46" type="L2-CV-" depart="218.50">
        <route edges="bottom-approaching right-exit"/>
    </vehicle>
    <vehicle id="L2-CV-47" type="L2-CV-" depart="223.25">
        <route edges="top-approaching bottom-exit"/>
    </vehicle>
    <vehicle id="L2-CV-48" type="L2-CV-" depart="228.00">
        <route edges="bottom-approaching top-exit"/>
    </vehicle>
    <vehicle id="L2-CV-49" type="L2-CV-" depart="232.75">
        <route edges="left-long-approaching preparation left-short-approaching right-exit"/>
    </vehicle>
    <vehicle id="L2-CV-50" type="L2-CV-" depart="237.50">
        <route edges="bottom-approaching closed-lane remerging-lane left-exit"/>
    </vehicle>
    <vehicle id="L2-CV-51" type="L2-CV-" depart="242.25">
        <route edges="bottom-approaching right-exit"/>
    </vehicle>
    <vehicle id="L2-CV-52" type="L2-CV-" depart="247.00">
        <route edges="bottom-approaching top-exit"/>
    </vehicle>
    <vehicle id="L2-CV-53" type="L2-CV-" depart="251.75">
        <route edges="bottom-approaching right-exit"/>
    </vehicle>
    <vehicle id="L2-CV-54" type="L2-CV-" depart="256.50">
        <route edges="bottom-approaching closed-lane remerging-lane left-exit"/>
    </vehicle>
    <vehicle id="L2-CV-55" type="L2-CV-" depart="261.25">
        <route edges="top-approaching bottom-exit"/>
    </vehicle>
    <vehicle id="L2-CV-56" type="L2-CV-" depart="266.00">
        <route edges="bottom-approaching right-exit"/>
    </vehicle>
    <vehicle id="L2-CV-57" type="L2-CV-Right-" depart="270.75">
        <route edges="left-long-approaching preparation left-short-approaching bottom-exit"/>
    </vehicle>
    <vehicle id="L2-CV-58" type="L2-CV-" depart="275.50">
        <route edges="top-approaching bottom-exit"/>
    </vehicle>
    <vehicle id="L2-CV-59" type="L2-CV-" depart="280.25">
        <route edges="bottom-approaching closed-lane remerging-lane left-exit"/>
    </vehicle>
    <vehicle id="L2-CV-61" type="L2-CV-" depart="289.75">
        <route edges="bottom-approaching closed-lane remerging-lane left-exit"/>
    </vehicle>
    <vehicle id="L2-CV-62" type="L2-CV-" depart="294.50">
        <route edges="bottom-approaching closed-lane remerging-lane left-exit"/>
    </vehicle>
    <vehicle id="L2-CV-63" type="L2-CV-" depart="299.25">
        <route edges="top-approaching right-exit"/>
    </vehicle>
    <vehicle id="L2-CV-65" type="L2-CV-" depart="308.75">
        <route edges="top-approaching right-exit"/>
    </vehicle>
    <vehicle id="L2-CV-66" type="L2-CV-Right-" depart="313.50">
        <route edges="left-long-approaching preparation left-short-approaching bottom-exit"/>
    </vehicle>
    <vehicle id="L2-CV-67" type="L2-CV-" depart="318.25">
        <route edges="right-approaching closed-lane remerging-lane left-exit"/>
    </vehicle>
    <vehicle id="L2-CV-68" type="L2-CV-" depart="323.00">
        <route edges="bottom-approaching closed-lane remerging-lane left-exit"/>
    </vehicle>
    <vehicle id="L2-CV-69" type="L2-CV-" depart="327.75">
        <route edges="top-approaching bottom-exit"/>
    </vehicle>
    <vehicle id="L2-CV-70" type="L2-CV-" depart="332.50">
        <route edges="right-approaching closed-lane remerging-lane left-exit"/>
    </vehicle>
    <vehicle id="L2-CV-71" type="L2-CV-" depart="337.25">
        <route edges="right-approaching bottom-exit"/>
    </vehicle>
    <vehicle id="L2-CV-72" type="L2-CV-" depart="342.00">
        <route edges="top-approaching closed-lane remerging-lane left-exit"/>
    </vehicle>
    <vehicle id="L2-CV-73" type="L2-CV-" depart="346.75">
        <route edges="right-approaching closed-lane remerging-lane left-exit"/>
    </vehicle>
    <vehicle id="L2-CV-74" type="L2-CV-" depart="351.50">
        <route edges="bottom-approaching right-exit"/>
    </vehicle>
    <vehicle id="L2-CV-77" type="L2-CV-" depart="365.75">
        <route edges="bottom-approaching right-exit"/>
    </vehicle>
    <vehicle id="L2-CV-78" type="L2-CV-" depart="370.50">
        <route edges="right-approaching top-exit"/>
    </vehicle>
    <vehicle id="L2-CV-80" type="L2-CV-" depart="380.00">
        <route edges="bottom-approaching closed-lane remerging-lane left-exit"/>
    </vehicle>
    <vehicle id="L2-CV-81" type="L2-CV-" depart="384.75">
        <route edges="left-long-approaching preparation left-short-approaching right-exit"/>
    </vehicle>
    <vehicle id="L2-CV-82" type="L2-CV-" depart="389.50">
        <route edges="right-approaching top-exit"/>
    </vehicle>
    <vehicle id="L2-CV-83" type="L2-CV-" depart="394.25">
        <route edges="right-approaching closed-lane remerging-lane left-exit"/>
    </vehicle>
    <vehicle id="L2-CV-84" type="L2-CV-" depart="399.00">
        <route edges="left-long-approaching preparation left-short-approaching right-exit"/>
    </vehicle>
    <vehicle id="L2-CV-86" type="L2-CV-Right-" depart="408.50">
        <route edges="left-long-approaching preparation left-short-approaching bottom-exit"/>
    </vehicle>
    <vehicle id="L2-CV-87" type="L2-CV-" depart="413.25">
        <route edges="right-approaching bottom-exit"/>
    </vehicle>
    <vehicle id="L2-CV-90" type="L2-CV-" depart="427.50">
        <route edges="right-approaching closed-lane remerging-lane left-exit"/>
    </vehicle>
    <vehicle id="L2-CV-91" type="L2-CV-" depart="432.25">
        <route edges="left-long-approaching preparation left-short-approaching right-exit"/>
    </vehicle>
    <vehicle id="L2-CV-92" type="L2-CV-" depart="437.00">
        <route edges="bottom-approaching top-exit"/>
    </vehicle>
    <vehicle id="L2-CV-93" type="L2-CV-" depart="441.75">
        <route edges="top-approaching right-exit"/>
    </vehicle>
    <vehicle id="L2-CV-94" type="L2-CV-" depart="446.50">
        <route edges="left-long-approaching preparation left-short-approaching right-exit"/>
    </vehicle>
    <vehicle id="L2-CV-95" type="L2-CV-" depart="451.25">
        <route edges="right-approaching bottom-exit"/>
    </vehicle>
    <vehicle id="L2-CV-96" type="L2-CV-" depart="456.00">
        <route edges="left-long-approaching preparation left-short-approaching right-exit"/>
    </vehicle>
    <vehicle id="L2-CV-98" type="L2-CV-" depart="465.50">
        <route edges="top-approaching closed-lane remerging-lane left-exit"/>
    </vehicle>
    <vehicle id="L2-CV-99" type="L2-CV-" depart="470.25">
        <route edges="right-approaching top-exit"/>
    </vehicle>
    <vehicle id="L2-CV-100" type="L2-CV-" depart="475.00">
        <route edges="right-approaching closed-lane remerging-lane left-exit"/>
    </vehicle>
    <vehicle id="L2-CV-101" type="L2-CV-" depart="479.75">
        <route edges="top-approaching closed-lane remerging-lane left-exit"/>
    </vehicle>
    <vehicle id="L2-CV-102" type="L2-CV-" depart="484.50">
        <route edges="bottom-approaching right-exit"/>
    </vehicle>
    <vehicle id="L2-CV-103" type="L2-CV-" depart="489.25">
        <route edges="bottom-approaching closed-lane remerging-lane left-exit"/>
    </vehicle>
    <vehicle id="L2-CV-104" type="L2-CV-" depart="494.00">
        <route edges="top-approaching right-exit"/>
    </vehicle>
    <vehicle id="L2-CV-105" type="L2-CV-" depart="498.75">
        <route edges="bottom-approaching closed-lane remerging-lane left-exit"/>
    </vehicle>
    <vehicle id="L2-CV-107" type="L2-CV-" depart="508.25">
        <route edges="bottom-approaching right-exit"/>
    </vehicle>
    <vehicle id="L2-CV-108" type="L2-CV-" depart="513.00">
        <route edges="bottom-approaching closed-lane remerging-lane left-exit"/>
    </vehicle>
    <vehicle id="L2-CV-109" type="L2-CV-Left-" depart="517.75">
        <route edges="left-long-approaching preparation"/>
    </vehicle>
    <vehicle id="L2-CV-110" type="L2-CV-" depart="522.50">
        <route edges="bottom-approaching top-exit"/>
    </vehicle>
    <vehicle id="L2-CV-111" type="L2-CV-" depart="527.25">
        <route edges="bottom-approaching right-exit"/>
    </vehicle>
    <vehicle id="L2-CV-113" type="L2-CV-" depart="536.75">
        <route edges="top-approaching closed-lane remerging-lane left-exit"/>
    </vehicle>
    <vehicle id="L2-CV-115" type="L2-CV-" depart="546.25">
        <route edges="bottom-approaching top-exit"/>
    </vehicle>
    <vehicle id="L2-CV-116" type="L2-CV-" depart="551.00">
        <route edges="right-approaching top-exit"/>
    </vehicle>
    <vehicle id="L2-CV-117" type="L2-CV-" depart="555.75">
        <route edges="right-approaching bottom-exit"/>
    </vehicle>
    <vehicle id="L2-CV-118" type="L2-CV-" depart="560.50">
        <route edges="right-approaching top-exit"/>
    </vehicle>
    <vehicle id="L2-CV-121" type="L2-CV-" depart="574.75">
        <route edges="top-approaching closed-lane remerging-lane left-exit"/>
    </vehicle>
    <vehicle id="L2-CV-122" type="L2-CV-" depart="579.50">
        <route edges="right-approaching closed-lane remerging-lane left-exit"/>
    </vehicle>
    <vehicle id="L2-CV-125" type="L2-CV-Right-" depart="593.75">
        <route edges="left-long-approaching preparation left-short-approaching bottom-exit"/>
    </vehicle>
    <vehicle id="L2-CV-127" type="L2-CV-" depart="603.25">
        <route edges="left-long-approaching preparation left-short-approaching right-exit"/>
    </vehicle>
    <vehicle id="L2-CV-128" type="L2-CV-" depart="608.00">
        <route edges="top-approaching right-exit"/>
    </vehicle>
    <vehicle id="L2-CV-129" type="L2-CV-" depart="612.75">
        <route edges="top-approaching bottom-exit"/>
    </vehicle>
    <vehicle id="L2-CV-130" type="L2-CV-Left-" depart="617.50">
        <route edges="left-long-approaching preparation"/>
    </vehicle>
    <vehicle id="L2-CV-131" type="L2-CV-" depart="622.25">
        <route edges="bottom-approaching closed-lane remerging-lane left-exit"/>
    </vehicle>
    <vehicle id="L2-CV-134" type="L2-CV-" depart="636.50">
        <route edges="right-approaching bottom-exit"/>
    </vehicle>
    <vehicle id="L2-CV-135" type="L2-CV-Right-" depart="641.25">
        <route edges="left-long-approaching preparation left-short-approaching bottom-exit"/>
    </vehicle>
    <vehicle id="L2-CV-137" type="L2-CV-" depart="650.75">
        <route edges="left-long-approaching preparation left-short-approaching right-exit"/>
    </vehicle>
    <vehicle id="L2-CV-138" type="L2-CV-" depart="655.50">
        <route edges="bottom-approaching right-exit"/>
    </vehicle>
    <vehicle id="L2-CV-140" type="L2-CV-" depart="665.00">
        <route edges="bottom-approaching right-exit"/>
    </vehicle>
    <vehicle id="L2-CV-141" type="L2-CV-" depart="669.75">
        <route edges="right-approaching closed-lane remerging-lane left-exit"/>
    </vehicle>
    <vehicle id="L2-CV-142" type="L2-CV-" depart="674.50">
        <route edges="top-approaching closed-lane remerging-lane left-exit"/>
    </vehicle>
    <vehicle id="L2-CV-143" type="L2-CV-" depart="679.25">
        <route edges="right-approaching closed-lane remerging-lane left-exit"/>
    </vehicle>
    <vehicle id="L2-CV-145" type="L2-CV-" depart="688.75">
        <route edges="right-approaching bottom-exit"/>
    </vehicle>
    <vehicle id="L2-CV-146" type="L2-CV-Right-" depart="693.50">
        <route edges="left-long-approaching preparation left-short-approaching bottom-exit"/>
    </vehicle>
    <vehicle id="L2-CV-147" type="L2-CV-" depart="698.25">
        <route edges="right-approaching top-exit"/>
    </vehicle>
    <vehicle id="L2-CV-148" type="L2-CV-" depart="703.00">
        <route edges="bottom-approaching right-exit"/>
    </vehicle>
    <vehicle id="L2-CV-150" type="L2-CV-" depart="712.50">
        <route edges="right-approaching top-exit"/>
    </vehicle>
    <vehicle id="L2-CV-151" type="L2-CV-" depart="717.25">
        <route edges="right-approaching closed-lane remerging-lane left-exit"/>
    </vehicle>
    <vehicle id="L2-CV-152" type="L2-CV-" depart="722.00">
        <route edges="top-approaching closed-lane remerging-lane left-exit"/>
    </vehicle>
    <vehicle id="L2-CV-155" type="L2-CV-" depart="736.25">
        <route edges="bottom-approaching right-exit"/>
    </vehicle>
    <vehicle id="L2-CV-156" type="L2-CV-" depart="741.00">
        <route edges="left-long-approaching preparation left-short-approaching right-exit"/>
    </vehicle>
    <vehicle id="L2-CV-157" type="L2-CV-" depart="745.75">
        <route edges="top-approaching right-exit"/>
    </vehicle>
    <vehicle id="L2-CV-158" type="L2-CV-" depart="750.50">
        <route edges="bottom-approaching closed-lane remerging-lane left-exit"/>
    </vehicle>
    <vehicle id="L2-CV-159" type="L2-CV-" depart="755.25">
        <route edges="right-approaching top-exit"/>
    </vehicle>
    <vehicle id="L2-CV-160" type="L2-CV-" depart="760.00">
        <route edges="right-approaching top-exit"/>
    </vehicle>
    <vehicle id="L2-CV-161" type="L2-CV-" depart="764.75">
        <route edges="bottom-approaching top-exit"/>
    </vehicle>
    <vehicle id="L2-CV-164" type="L2-CV-" depart="779.00">
        <route edges="bottom-approaching top-exit"/>
    </vehicle>
    <vehicle id="L2-CV-165" type="L2-CV-" depart="783.75">
        <route edges="top-approaching bottom-exit"/>
    </vehicle>
    <vehicle id="L2-CV-167" type="L2-CV-" depart="793.25">
        <route edges="bottom-approaching top-exit"/>
    </vehicle>
    <vehicle id="L2-CV-168" type="L2-CV-" depart="798.00">
        <route edges="bottom-approaching right-exit"/>
    </vehicle>
    <vehicle id="L2-CV-170" type="L2-CV-" depart="807.50">
        <route edges="right-approaching closed-lane remerging-lane left-exit"/>
    </vehicle>
    <vehicle id="L2-CV-171" type="L2-CV-" depart="812.25">
        <route edges="bottom-approaching top-exit"/>
    </vehicle>
    <vehicle id="L2-CV-173" type="L2-CV-Left-" depart="821.75">
        <route edges="left-long-approaching preparation"/>
    </vehicle>
    <vehicle id="L2-CV-174" type="L2-CV-" depart="826.50">
        <route edges="right-approaching top-exit"/>
    </vehicle>
    <vehicle id="L2-CV-175" type="L2-CV-" depart="831.25">
        <route edges="left-long-approaching preparation left-short-approaching right-exit"/>
    </vehicle>
    <vehicle id="L2-CV-177" type="L2-CV-Right-" depart="840.75">
        <route edges="left-long-approaching preparation left-short-approaching bottom-exit"/>
    </vehicle>
    <vehicle id="L2-CV-178" type="L2-CV-" depart="845.50">
        <route edges="bottom-approaching top-exit"/>
    </vehicle>
    <vehicle id="L2-CV-179" type="L2-CV-" depart="850.25">
        <route edges="bottom-approaching right-exit"/>
    </vehicle>
    <vehicle id="L2-CV-180" type="L2-CV-" depart="855.00">
        <route edges="top-approaching closed-lane remerging-lane left-exit"/>
    </vehicle>
    <vehicle id="L2-CV-181" type="L2-CV-" depart="859.75">
        <route edges="right-approaching top-exit"/>
    </vehicle>
    <vehicle id="L2-CV-182" type="L2-CV-" depart="864.50">
        <route edges="top-approaching bottom-exit"/>
    </vehicle>
    <vehicle id="L2-CV-183" type="L2-CV-" depart="869.25">
        <route edges="bottom-approaching closed-lane remerging-lane left-exit"/>
    </vehicle>
    <vehicle id="L2-CV-185" type="L2-CV-" depart="878.75">
        <route edges="bottom-approaching right-exit"/>
    </vehicle>
    <vehicle id="L2-CV-186" type="L2-CV-" depart="883.50">
        <route edges="top-approaching closed-lane remerging-lane left-exit"/>
    </vehicle>
    <vehicle id="L2-CV-187" type="L2-CV-" depart="888.25">
        <route edges="right-approaching closed-lane remerging-lane left-exit"/>
    </vehicle>
    <vehicle id="L2-CV-188" type="L2-CV-Left-" depart="893.00">
        <route edges="left-long-approaching preparation"/>
    </vehicle>
    <vehicle id="L2-CV-189" type="L2-CV-" depart="897.75">
        <route edges="left-long-approaching preparation left-short-approaching right-exit"/>
    </vehicle>
    <vehicle id="L2-CV-190" type="L2-CV-" depart="902.50">
        <route edges="left-long-approaching preparation left-short-approaching right-exit"/>
    </vehicle>
    <vehicle id="L2-CV-191" type="L2-CV-" depart="907.25">
        <route edges="top-approaching bottom-exit"/>
    </vehicle>
    <vehicle id="L2-CV-192" type="L2-CV-" depart="912.00">
        <route edges="top-approaching closed-lane remerging-lane left-exit"/>
    </vehicle>
    <vehicle id="L2-CV-193" type="L2-CV-" depart="916.75">
        <route edges="right-approaching top-exit"/>
    </vehicle>
    <vehicle id="L2-CV-194" type="L2-CV-" depart="921.50">
        <route edges="right-approaching closed-lane remerging-lane left-exit"/>
    </vehicle>
    <vehicle id="L2-CV-195" type="L2-CV-" depart="926.25">
        <route edges="top-approaching bottom-exit"/>
    </vehicle>
    <vehicle id="L2-CV-196" type="L2-CV-" depart="931.00">
        <route edges="right-approaching closed-lane remerging-lane left-exit"/>
    </vehicle>
    <vehicle id="L2-CV-197" type="L2-CV-" depart="935.75">
        <route edges="right-approaching top-exit"/>
    </vehicle>
    <vehicle id="L2-CV-198" type="L2-CV-" depart="940.50">
        <route edges="top-approaching right-exit"/>
    </vehicle>
    <vehicle id="L2-CV-199" type="L2-CV-Right-" depart="945.25">
        <route edges="left-long-approaching preparation left-short-approaching bottom-exit"/>
    </vehicle>
    <vehicle id="L2-CV-200" type="L2-CV-Right-" depart="950.00">
        <route edges="left-long-approaching preparation left-short-approaching bottom-exit"/>
    </vehicle>
    <vehicle id="L2-CV-201" type="L2-CV-Left-" depart="954.75">
        <route edges="left-long-approaching preparation"/>
    </vehicle>
    <vehicle id="L2-CV-202" type="L2-CV-" depart="959.50">
        <route edges="bottom-approaching top-exit"/>
    </vehicle>
    <vehicle id="L2-CV-204" type="L2-CV-Right-" depart="969.00">
        <route edges="left-long-approaching preparation left-short-approaching bottom-exit"/>
    </vehicle>
    <vehicle id="L2-CV-205" type="L2-CV-Right-" depart="973.75">
        <route edges="left-long-approaching preparation left-short-approaching bottom-exit"/>
    </vehicle>
    <vehicle id="L2-CV-208" type="L2-CV-" depart="988.00">
        <route edges="left-long-approaching preparation left-short-approaching right-exit"/>
    </vehicle>
    <vehicle id="L2-CV-209" type="L2-CV-" depart="992.75">
        <route edges="top-approaching closed-lane remerging-lane left-exit"/>
    </vehicle>
    <vehicle id="L2-CV-211" type="L2-CV-" depart="1002.25">
        <route edges="bottom-approaching right-exit"/>
    </vehicle>
    <vehicle id="L2-CV-213" type="L2-CV-" depart="1011.75">
        <route edges="top-approaching bottom-exit"/>
    </vehicle>
    <vehicle id="L2-CV-214" type="L2-CV-" depart="1016.50">
        <route edges="top-approaching right-exit"/>
    </vehicle>
    <vehicle id="L2-CV-215" type="L2-CV-Left-" depart="1021.25">
        <route edges="left-long-approaching preparation"/>
    </vehicle>
    <vehicle id="L2-CV-216" type="L2-CV-Left-" depart="1026.00">
        <route edges="left-long-approaching preparation"/>
    </vehicle>
    <vehicle id="L2-CV-218" type="L2-CV-" depart="1035.50">
        <route edges="right-approaching top-exit"/>
    </vehicle>
    <vehicle id="L2-CV-222" type="L2-CV-" depart="1054.50">
        <route edges="left-long-approaching preparation left-short-approaching right-exit"/>
    </vehicle>
    <vehicle id="L2-CV-223" type="L2-CV-" depart="1059.25">
        <route edges="right-approaching closed-lane remerging-lane left-exit"/>
    </vehicle>
    <vehicle id="L2-CV-224" type="L2-CV-Right-" depart="1064.00">
        <route edges="left-long-approaching preparation left-short-approaching bottom-exit"/>
    </vehicle>
    <vehicle id="L2-CV-225" type="L2-CV-" depart="1068.75">
        <route edges="top-approaching closed-lane remerging-lane left-exit"/>
    </vehicle>
    <vehicle id="L2-CV-226" type="L2-CV-Left-" depart="1073.50">
        <route edges="left-long-approaching preparation"/>
    </vehicle>
    <vehicle id="L2-CV-227" type="L2-CV-" depart="1078.25">
        <route edges="bottom-approaching top-exit"/>
    </vehicle>
    <vehicle id="L2-CV-231" type="L2-CV-" depart="1097.25">
        <route edges="top-approaching closed-lane remerging-lane left-exit"/>
    </vehicle>
    <vehicle id="L2-CV-232" type="L2-CV-" depart="1102.00">
        <route edges="right-approaching bottom-exit"/>
    </vehicle>
    <vehicle id="L2-CV-233" type="L2-CV-" depart="1106.75">
        <route edges="top-approaching closed-lane remerging-lane left-exit"/>
    </vehicle>
    <vehicle id="L2-CV-234" type="L2-CV-" depart="1111.50">
        <route edges="left-long-approaching preparation left-short-approaching right-exit"/>
    </vehicle>
    <vehicle id="L2-CV-235" type="L2-CV-" depart="1116.25">
        <route edges="bottom-approaching closed-lane remerging-lane left-exit"/>
    </vehicle>
    <vehicle id="L2-CV-236" type="L2-CV-" depart="1121.00">
        <route edges="top-approaching bottom-exit"/>
    </vehicle>
    <vehicle id="L2-CV-241" type="L2-CV-" depart="1144.75">
        <route edges="right-approaching closed-lane remerging-lane left-exit"/>
    </vehicle>
    <vehicle id="L2-CV-242" type="L2-CV-Left-" depart="1149.50">
        <route edges="left-long-approaching preparation"/>
    </vehicle>
    <vehicle id="L2-CV-244" type="L2-CV-" depart="1159.00">
        <route edges="top-approaching closed-lane remerging-lane left-exit"/>
    </vehicle>
    <vehicle id="L2-CV-245" type="L2-CV-" depart="1163.75">
        <route edges="top-approaching bottom-exit"/>
    </vehicle>
    <vehicle id="L2-CV-246" type="L2-CV-" depart="1168.50">
        <route edges="right-approaching top-exit"/>
    </vehicle>
    <vehicle id="L2-CV-247" type="L2-CV-Left-" depart="1173.25">
        <route edges="left-long-approaching preparation"/>
    </vehicle>
    <vehicle id="L2-CV-248" type="L2-CV-" depart="1178.00">
        <route edges="right-approaching closed-lane remerging-lane left-exit"/>
    </vehicle>
    <vehicle id="L2-CV-249" type="L2-CV-" depart="1182.75">
        <route edges="top-approaching closed-lane remerging-lane left-exit"/>
    </vehicle>
    <vehicle id="L2-CV-250" type="L2-CV-" depart="1187.50">
        <route edges="left-long-approaching preparation left-short-approaching right-exit"/>
    </vehicle>
    <vehicle id="L2-CV-251" type="L2-CV-Left-" depart="1192.25">
        <route edges="left-long-approaching preparation"/>
    </vehicle>
    <vehicle id="L2-CV-253" type="L2-CV-" depart="1201.75">
        <route edges="right-approaching top-exit"/>
    </vehicle>
    <vehicle id="L2-CV-256" type="L2-CV-" depart="1216.00">
        <route edges="right-approaching bottom-exit"/>
    </vehicle>
    <vehicle id="L2-CV-257" type="L2-CV-" depart="1220.75">
        <route edges="bottom-approaching top-exit"/>
    </vehicle>
    <vehicle id="L2-CV-258" type="L2-CV-" depart="1225.50">
        <route edges="bottom-approaching top-exit"/>
    </vehicle>
    <vehicle id="L2-CV-259" type="L2-CV-" depart="1230.25">
        <route edges="right-approaching top-exit"/>
    </vehicle>
    <vehicle id="L2-CV-260" type="L2-CV-" depart="1235.00">
        <route edges="bottom-approaching closed-lane remerging-lane left-exit"/>
    </vehicle>
    <vehicle id="L2-CV-261" type="L2-CV-" depart="1239.75">
        <route edges="top-approaching bottom-exit"/>
    </vehicle>
    <vehicle id="L2-CV-262" type="L2-CV-" depart="1244.50">
        <route edges="bottom-approaching closed-lane remerging-lane left-exit"/>
    </vehicle>
    <vehicle id="L2-CV-264" type="L2-CV-" depart="1254.00">
        <route edges="right-approaching bottom-exit"/>
    </vehicle>
    <vehicle id="L2-CV-265" type="L2-CV-" depart="1258.75">
        <route edges="top-approaching right-exit"/>
    </vehicle>
    <vehicle id="L2-CV-266" type="L2-CV-" depart="1263.50">
        <route edges="bottom-approaching top-exit"/>
    </vehicle>
    <vehicle id="L2-CV-267" type="L2-CV-" depart="1268.25">
        <route edges="bottom-approaching closed-lane remerging-lane left-exit"/>
    </vehicle>
    <vehicle id="L2-CV-268" type="L2-CV-" depart="1273.00">
        <route edges="right-approaching bottom-exit"/>
    </vehicle>
    <vehicle id="L2-CV-269" type="L2-CV-Right-" depart="1277.75">
        <route edges="left-long-approaching preparation left-short-approaching bottom-exit"/>
    </vehicle>