<?xml version="1.0" ?><!-- generated on 03/22/21 00:11:12 by Eclipse SUMO duarouter Version 1.8.0
<configuration xmlns:xsi="http://www.w3.org/2001/XMLSchema-instance" xsi:noNamespaceSchemaLocation="http://sumo.dlr.de/xsd/duarouterConfiguration.xsd">

    <input>
        <net-file value="Roadworks/RoadworksIntersection.net.xml"/>
        <route-files value="trips.trips.xml"/>
    </input>

    <output>
        <output-file value="Roadworks/RealTMSPenetration2/Route-Files/L4-AV-Route.rou.xml"/>
        <alternatives-output value="Roadworks/RealTMSPenetration2/Route-Files/L4-AV-Route.rou.alt.xml"/>
    </output>

    <time>
        <begin value="0"/>
        <end value="3600"/>
    </time>

    <report>
        <no-warnings value="true"/>
        <ignore-errors value="true"/>
        <no-step-log value="true"/>
    </report>

</configuration>
--><routes xmlns:xsi="http://www.w3.org/2001/XMLSchema-instance" xsi:noNamespaceSchemaLocation="http://sumo.dlr.de/xsd/routes_file.xsd">
    <vehicle id="L4-AV-0" type="L4-AV-" depart="0.00">
        <route edges="bottom-approaching right-exit"/>
    </vehicle>
    <vehicle id="L4-AV-1" type="L4-AV-" depart="5.00">
        <route edges="left-long-approaching preparation left-short-approaching right-exit"/>
    </vehicle>
    <vehicle id="L4-AV-2" type="L4-AV-" depart="10.00">
        <route edges="right-approaching bottom-exit"/>
    </vehicle>
    <vehicle id="L4-AV-3" type="L4-AV-" depart="15.00">
        <route edges="bottom-approaching top-exit"/>
    </vehicle>
    <vehicle id="L4-AV-4" type="L4-AV-Right-" depart="20.00">
        <route edges="left-long-approaching preparation left-short-approaching bottom-exit"/>
    </vehicle>
    <vehicle id="L4-AV-5" type="L4-AV-" depart="25.00">
        <route edges="top-approaching closed-lane remerging-lane left-exit"/>
    </vehicle>
    <vehicle id="L4-AV-6" type="L4-AV-" depart="30.00">
        <route edges="top-approaching closed-lane remerging-lane left-exit"/>
    </vehicle>
    <vehicle id="L4-AV-7" type="L4-AV-" depart="35.00">
        <route edges="right-approaching bottom-exit"/>
    </vehicle>
    <vehicle id="L4-AV-8" type="L4-AV-" depart="40.00">
        <route edges="right-approaching top-exit"/>
    </vehicle>
    <vehicle id="L4-AV-10" type="L4-AV-" depart="50.00">
        <route edges="right-approaching bottom-exit"/>
    </vehicle>
    <vehicle id="L4-AV-11" type="L4-AV-" depart="55.00">
        <route edges="top-approaching right-exit"/>
    </vehicle>
    <vehicle id="L4-AV-12" type="L4-AV-Right-" depart="60.00">
        <route edges="left-long-approaching preparation left-short-approaching bottom-exit"/>
    </vehicle>
    <vehicle id="L4-AV-13" type="L4-AV-" depart="65.00">
        <route edges="top-approaching closed-lane remerging-lane left-exit"/>
    </vehicle>
    <vehicle id="L4-AV-14" type="L4-AV-" depart="70.00">
        <route edges="right-approaching top-exit"/>
    </vehicle>
    <vehicle id="L4-AV-15" type="L4-AV-" depart="75.00">
        <route edges="right-approaching top-exit"/>
    </vehicle>
    <vehicle id="L4-AV-16" type="L4-AV-Left-" depart="80.00">
        <route edges="left-long-approaching preparation"/>
    </vehicle>
    <vehicle id="L4-AV-17" type="L4-AV-Left-" depart="85.00">
        <route edges="left-long-approaching preparation"/>
    </vehicle>
    <vehicle id="L4-AV-18" type="L4-AV-" depart="90.00">
        <route edges="top-approaching bottom-exit"/>
    </vehicle>
    <vehicle id="L4-AV-20" type="L4-AV-" depart="100.00">
        <route edges="top-approaching closed-lane remerging-lane left-exit"/>
    </vehicle>
    <vehicle id="L4-AV-21" type="L4-AV-" depart="105.00">
        <route edges="right-approaching closed-lane remerging-lane left-exit"/>
    </vehicle>
    <vehicle id="L4-AV-22" type="L4-AV-" depart="110.00">
        <route edges="right-approaching closed-lane remerging-lane left-exit"/>
    </vehicle>
    <vehicle id="L4-AV-23" type="L4-AV-" depart="115.00">
        <route edges="left-long-approaching preparation left-short-approaching right-exit"/>
    </vehicle>
    <vehicle id="L4-AV-24" type="L4-AV-" depart="120.00">
        <route edges="right-approaching top-exit"/>
    </vehicle>
    <vehicle id="L4-AV-25" type="L4-AV-" depart="125.00">
        <route edges="right-approaching top-exit"/>
    </vehicle>
    <vehicle id="L4-AV-27" type="L4-AV-" depart="135.00">
        <route edges="right-approaching bottom-exit"/>
    </vehicle>
    <vehicle id="L4-AV-29" type="L4-AV-" depart="145.00">
        <route edges="top-approaching right-exit"/>
    </vehicle>
    <vehicle id="L4-AV-30" type="L4-AV-" depart="150.00">
        <route edges="right-approaching bottom-exit"/>
    </vehicle>
    <vehicle id="L4-AV-31" type="L4-AV-" depart="155.00">
        <route edges="top-approaching right-exit"/>
    </vehicle>
    <vehicle id="L4-AV-32" type="L4-AV-Right-" depart="160.00">
        <route edges="left-long-approaching preparation left-short-approaching bottom-exit"/>
    </vehicle>
    <vehicle id="L4-AV-34" type="L4-AV-" depart="170.00">
        <route edges="bottom-approaching top-exit"/>
    </vehicle>
    <vehicle id="L4-AV-35" type="L4-AV-Right-" depart="175.00">
        <route edges="left-long-approaching preparation left-short-approaching bottom-exit"/>
    </vehicle>
    <vehicle id="L4-AV-36" type="L4-AV-Left-" depart="180.00">
        <route edges="left-long-approaching preparation"/>
    </vehicle>
    <vehicle id="L4-AV-37" type="L4-AV-" depart="185.00">
        <route edges="top-approaching bottom-exit"/>
    </vehicle>
    <vehicle id="L4-AV-38" type="L4-AV-" depart="190.00">
        <route edges="right-approaching bottom-exit"/>
    </vehicle>
    <vehicle id="L4-AV-39" type="L4-AV-" depart="195.00">
        <route edges="right-approaching closed-lane remerging-lane left-exit"/>
    </vehicle>
    <vehicle id="L4-AV-41" type="L4-AV-" depart="205.00">
        <route edges="right-approaching top-exit"/>
    </vehicle>
    <vehicle id="L4-AV-42" type="L4-AV-Right-" depart="210.00">
        <route edges="left-long-approaching preparation left-short-approaching bottom-exit"/>
    </vehicle>
    <vehicle id="L4-AV-43" type="L4-AV-" depart="215.00">
        <route edges="right-approaching bottom-exit"/>
    </vehicle>
    <vehicle id="L4-AV-44" type="L4-AV-" depart="220.00">
        <route edges="bottom-approaching closed-lane remerging-lane left-exit"/>
    </vehicle>
    <vehicle id="L4-AV-45" type="L4-AV-" depart="225.00">
        <route edges="right-approaching bottom-exit"/>
    </vehicle>
    <vehicle id="L4-AV-46" type="L4-AV-" depart="230.00">
        <route edges="bottom-approaching top-exit"/>
    </vehicle>
    <vehicle id="L4-AV-47" type="L4-AV-Left-" depart="235.00">
        <route edges="left-long-approaching preparation"/>
    </vehicle>
    <vehicle id="L4-AV-48" type="L4-AV-" depart="240.00">
        <route edges="top-approaching closed-lane remerging-lane left-exit"/>
    </vehicle>
    <vehicle id="L4-AV-49" type="L4-AV-" depart="245.00">
        <route edges="left-long-approaching preparation left-short-approaching right-exit"/>
    </vehicle>
    <vehicle id="L4-AV-52" type="L4-AV-" depart="260.00">
        <route edges="top-approaching right-exit"/>
    </vehicle>
    <vehicle id="L4-AV-53" type="L4-AV-" depart="265.00">
        <route edges="left-long-approaching preparation left-short-approaching right-exit"/>
    </vehicle>
    <vehicle id="L4-AV-54" type="L4-AV-" depart="270.00">
        <route edges="bottom-approaching closed-lane remerging-lane left-exit"/>
    </vehicle>
    <vehicle id="L4-AV-55" type="L4-AV-" depart="275.00">
        <route edges="top-approaching right-exit"/>
    </vehicle>
    <vehicle id="L4-AV-56" type="L4-AV-" depart="280.00">
        <route edges="right-approaching bottom-exit"/>
    </vehicle>
    <vehicle id="L4-AV-57" type="L4-AV-" depart="285.00">
        <route edges="left-long-approaching preparation left-short-approaching right-exit"/>
    </vehicle>
    <vehicle id="L4-AV-58" type="L4-AV-" depart="290.00">
        <route edges="bottom-approaching right-exit"/>
    </vehicle>
    <vehicle id="L4-AV-59" type="L4-AV-" depart="295.00">
        <route edges="right-approaching bottom-exit"/>
    </vehicle>
    <vehicle id="L4-AV-60" type="L4-AV-" depart="300.00">
        <route edges="right-approaching closed-lane remerging-lane left-exit"/>
    </vehicle>
    <vehicle id="L4-AV-61" type="L4-AV-" depart="305.00">
        <route edges="right-approaching closed-lane remerging-lane left-exit"/>
    </vehicle>
    <vehicle id="L4-AV-64" type="L4-AV-" depart="320.00">
        <route edges="right-approaching top-exit"/>
    </vehicle>
    <vehicle id="L4-AV-66" type="L4-AV-" depart="330.00">
        <route edges="right-approaching closed-lane remerging-lane left-exit"/>
    </vehicle>
    <vehicle id="L4-AV-68" type="L4-AV-" depart="340.00">
        <route edges="left-long-approaching preparation left-short-approaching right-exit"/>
    </vehicle>
    <vehicle id="L4-AV-70" type="L4-AV-" depart="350.00">
        <route edges="top-approaching bottom-exit"/>
    </vehicle>
    <vehicle id="L4-AV-72" type="L4-AV-Right-" depart="360.00">
        <route edges="left-long-approaching preparation left-short-approaching bottom-exit"/>
    </vehicle>
    <vehicle id="L4-AV-73" type="L4-AV-" depart="365.00">
        <route edges="top-approaching bottom-exit"/>
    </vehicle>
    <vehicle id="L4-AV-74" type="L4-AV-" depart="370.00">
        <route edges="bottom-approaching closed-lane remerging-lane left-exit"/>
    </vehicle>
    <vehicle id="L4-AV-75" type="L4-AV-" depart="375.00">
        <route edges="right-approaching bottom-exit"/>
    </vehicle>
    <vehicle id="L4-AV-77" type="L4-AV-" depart="385.00">
        <route edges="top-approaching closed-lane remerging-lane left-exit"/>
    </vehicle>
    <vehicle id="L4-AV-78" type="L4-AV-" depart="390.00">
        <route edges="top-approaching bottom-exit"/>
    </vehicle>
    <vehicle id="L4-AV-79" type="L4-AV-" depart="395.00">
        <route edges="left-long-approaching preparation left-short-approaching right-exit"/>
    </vehicle>
    <vehicle id="L4-AV-80" type="L4-AV-" depart="400.00">
        <route edges="top-approaching closed-lane remerging-lane left-exit"/>
    </vehicle>
    <vehicle id="L4-AV-82" type="L4-AV-" depart="410.00">
        <route edges="right-approaching bottom-exit"/>
    </vehicle>
    <vehicle id="L4-AV-84" type="L4-AV-" depart="420.00">
        <route edges="bottom-approaching closed-lane remerging-lane left-exit"/>
    </vehicle>
    <vehicle id="L4-AV-85" type="L4-AV-" depart="425.00">
        <route edges="top-approaching right-exit"/>
    </vehicle>
    <vehicle id="L4-AV-86" type="L4-AV-" depart="430.00">
        <route edges="top-approaching closed-lane remerging-lane left-exit"/>
    </vehicle>
    <vehicle id="L4-AV-87" type="L4-AV-" depart="435.00">
        <route edges="bottom-approaching closed-lane remerging-lane left-exit"/>
    </vehicle>
    <vehicle id="L4-AV-88" type="L4-AV-" depart="440.00">
        <route edges="top-approaching closed-lane remerging-lane left-exit"/>
    </vehicle>
    <vehicle id="L4-AV-91" type="L4-AV-" depart="455.00">
        <route edges="top-approaching bottom-exit"/>
    </vehicle>
    <vehicle id="L4-AV-92" type="L4-AV-" depart="460.00">
        <route edges="bottom-approaching top-exit"/>
    </vehicle>
    <vehicle id="L4-AV-94" type="L4-AV-Left-" depart="470.00">
        <route edges="left-long-approaching preparation"/>
    </vehicle>
    <vehicle id="L4-AV-95" type="L4-AV-" depart="475.00">
        <route edges="top-approaching bottom-exit"/>
    </vehicle>
    <vehicle id="L4-AV-96" type="L4-AV-" depart="480.00">
        <route edges="right-approaching top-exit"/>
    </vehicle>
    <vehicle id="L4-AV-100" type="L4-AV-" depart="500.00">
        <route edges="right-approaching closed-lane remerging-lane left-exit"/>
    </vehicle>
    <vehicle id="L4-AV-101" type="L4-AV-" depart="505.00">
        <route edges="top-approaching bottom-exit"/>
    </vehicle>
    <vehicle id="L4-AV-102" type="L4-AV-" depart="510.00">
        <route edges="top-approaching right-exit"/>
    </vehicle>
    <vehicle id="L4-AV-104" type="L4-AV-" depart="520.00">
        <route edges="top-approaching right-exit"/>
    </vehicle>
    <vehicle id="L4-AV-105" type="L4-AV-" depart="525.00">
        <route edges="bottom-approaching right-exit"/>
    </vehicle>
    <vehicle id="L4-AV-106" type="L4-AV-" depart="530.00">
        <route edges="bottom-approaching closed-lane remerging-lane left-exit"/>
    </vehicle>
    <vehicle id="L4-AV-108" type="L4-AV-Left-" depart="540.00">
        <route edges="left-long-approaching preparation"/>
    </vehicle>
    <vehicle id="L4-AV-109" type="L4-AV-" depart="545.00">
        <route edges="right-approaching closed-lane remerging-lane left-exit"/>
    </vehicle>
    <vehicle id="L4-AV-110" type="L4-AV-Left-" depart="550.00">
        <route edges="left-long-approaching preparation"/>
    </vehicle>
    <vehicle id="L4-AV-111" type="L4-AV-Left-" depart="555.00">
        <route edges="left-long-approaching preparation"/>
    </vehicle>
    <vehicle id="L4-AV-112" type="L4-AV-Right-" depart="560.00">
        <route edges="left-long-approaching preparation left-short-approaching bottom-exit"/>
    </vehicle>
    <vehicle id="L4-AV-113" type="L4-AV-" depart="565.00">
        <route edges="right-approaching top-exit"/>
    </vehicle>
    <vehicle id="L4-AV-114" type="L4-AV-" depart="570.00">
        <route edges="bottom-approaching top-exit"/>
    </vehicle>
    <vehicle id="L4-AV-116" type="L4-AV-" depart="580.00">
        <route edges="top-approaching bottom-exit"/>
    </vehicle>
    <vehicle id="L4-AV-117" type="L4-AV-" depart="585.00">
        <route edges="right-approaching top-exit"/>
    </vehicle>
    <vehicle id="L4-AV-118" type="L4-AV-" depart="590.00">
        <route edges="bottom-approaching closed-lane remerging-lane left-exit"/>
    </vehicle>
    <vehicle id="L4-AV-119" type="L4-AV-" depart="595.00">
        <route edges="left-long-approaching preparation left-short-approaching right-exit"/>
    </vehicle>
    <vehicle id="L4-AV-121" type="L4-AV-" depart="605.00">
        <route edges="top-approaching bottom-exit"/>
    </vehicle>
    <vehicle id="L4-AV-127" type="L4-AV-" depart="635.00">
        <route edges="left-long-approaching preparation left-short-approaching right-exit"/>
    </vehicle>
    <vehicle id="L4-AV-128" type="L4-AV-" depart="640.00">
        <route edges="right-approaching closed-lane remerging-lane left-exit"/>
    </vehicle>
    <vehicle id="L4-AV-129" type="L4-AV-" depart="645.00">
        <route edges="bottom-approaching closed-lane remerging-lane left-exit"/>
    </vehicle>
    <vehicle id="L4-AV-130" type="L4-AV-" depart="650.00">
        <route edges="bottom-approaching right-exit"/>
    </vehicle>
    <vehicle id="L4-AV-131" type="L4-AV-" depart="655.00">
        <route edges="right-approaching closed-lane remerging-lane left-exit"/>
    </vehicle>
    <vehicle id="L4-AV-133" type="L4-AV-" depart="665.00">
        <route edges="left-long-approaching preparation left-short-approaching right-exit"/>
    </vehicle>
    <vehicle id="L4-AV-134" type="L4-AV-" depart="670.00">
        <route edges="top-approaching closed-lane remerging-lane left-exit"/>
    </vehicle>
    <vehicle id="L4-AV-135" type="L4-AV-" depart="675.00">
        <route edges="top-approaching right-exit"/>
    </vehicle>
    <vehicle id="L4-AV-137" type="L4-AV-" depart="685.00">
        <route edges="left-long-approaching preparation left-short-approaching right-exit"/>
    </vehicle>
    <vehicle id="L4-AV-138" type="L4-AV-" depart="690.00">
        <route edges="left-long-approaching preparation left-short-approaching right-exit"/>
    </vehicle>
    <vehicle id="L4-AV-139" type="L4-AV-Right-" depart="695.00">
        <route edges="left-long-approaching preparation left-short-approaching bottom-exit"/>
    </vehicle>
    <vehicle id="L4-AV-141" type="L4-AV-" depart="705.00">
        <route edges="bottom-approaching closed-lane remerging-lane left-exit"/>
    </vehicle>
    <vehicle id="L4-AV-142" type="L4-AV-Left-" depart="710.00">
        <route edges="left-long-approaching preparation"/>
    </vehicle>
    <vehicle id="L4-AV-143" type="L4-AV-" depart="715.00">
        <route edges="top-approaching closed-lane remerging-lane left-exit"/>
    </vehicle>
    <vehicle id="L4-AV-146" type="L4-AV-" depart="730.00">
        <route edges="bottom-approaching top-exit"/>
    </vehicle>
    <vehicle id="L4-AV-147" type="L4-AV-" depart="735.00">
        <route edges="right-approaching top-exit"/>
    </vehicle>
    <vehicle id="L4-AV-148" type="L4-AV-" depart="740.00">
        <route edges="top-approaching right-exit"/>
    </vehicle>
    <vehicle id="L4-AV-150" type="L4-AV-" depart="750.00">
        <route edges="bottom-approaching right-exit"/>
    </vehicle>
    <vehicle id="L4-AV-152" type="L4-AV-" depart="760.00">
        <route edges="top-approaching bottom-exit"/>
    </vehicle>
    <vehicle id="L4-AV-154" type="L4-AV-" depart="770.00">
        <route edges="top-approaching bottom-exit"/>
    </vehicle>
    <vehicle id="L4-AV-155" type="L4-AV-" depart="775.00">
        <route edges="bottom-approaching top-exit"/>
    </vehicle>
    <vehicle id="L4-AV-156" type="L4-AV-" depart="780.00">
        <route edges="bottom-approaching top-exit"/>
    </vehicle>
    <vehicle id="L4-AV-157" type="L4-AV-" depart="785.00">
        <route edges="right-approaching top-exit"/>
    </vehicle>
    <vehicle id="L4-AV-158" type="L4-AV-" depart="790.00">
        <route edges="top-approaching right-exit"/>
    </vehicle>
    <vehicle id="L4-AV-159" type="L4-AV-" depart="795.00">
        <route edges="top-approaching bottom-exit"/>
    </vehicle>
    <vehicle id="L4-AV-160" type="L4-AV-" depart="800.00">
        <route edges="top-approaching right-exit"/>
    </vehicle>
    <vehicle id="L4-AV-161" type="L4-AV-" depart="805.00">
        <route edges="right-approaching bottom-exit"/>
    </vehicle>
    <vehicle id="L4-AV-162" type="L4-AV-" depart="810.00">
        <route edges="right-approaching top-exit"/>
    </vehicle>
    <vehicle id="L4-AV-163" type="L4-AV-" depart="815.00">
        <route edges="bottom-approaching closed-lane remerging-lane left-exit"/>
    </vehicle>
    <vehicle id="L4-AV-164" type="L4-AV-" depart="820.00">
        <route edges="right-approaching top-exit"/>
    </vehicle>
    <vehicle id="L4-AV-166" type="L4-AV-" depart="830.00">
        <route edges="left-long-approaching preparation left-short-approaching right-exit"/>
    </vehicle>
    <vehicle id="L4-AV-167" type="L4-AV-" depart="835.00">
        <route edges="top-approaching closed-lane remerging-lane left-exit"/>
    </vehicle>
    <vehicle id="L4-AV-171" type="L4-AV-" depart="855.00">
        <route edges="top-approaching closed-lane remerging-lane left-exit"/>
    </vehicle>
    <vehicle id="L4-AV-172" type="L4-AV-" depart="860.00">
        <route edges="right-approaching bottom-exit"/>
    </vehicle>
    <vehicle id="L4-AV-173" type="L4-AV-" depart="865.00">
        <route edges="right-approaching top-exit"/>
    </vehicle>
    <vehicle id="L4-AV-175" type="L4-AV-" depart="875.00">
        <route edges="left-long-approaching preparation left-short-approaching right-exit"/>
    </vehicle>
    <vehicle id="L4-AV-176" type="L4-AV-" depart="880.00">
        <route edges="top-approaching bottom-exit"/>
    </vehicle>
    <vehicle id="L4-AV-177" type="L4-AV-" depart="885.00">
        <route edges="bottom-approaching right-exit"/>
    </vehicle>
    <vehicle id="L4-AV-178" type="L4-AV-" depart="890.00">
        <route edges="top-approaching right-exit"/>
    </vehicle>
    <vehicle id="L4-AV-179" type="L4-AV-" depart="895.00">
        <route edges="left-long-approaching preparation left-short-approaching right-exit"/>
    </vehicle>
    <vehicle id="L4-AV-180" type="L4-AV-" depart="900.00">
        <route edges="bottom-approaching closed-lane remerging-lane left-exit"/>
    </vehicle>
    <vehicle id="L4-AV-181" type="L4-AV-" depart="905.00">
        <route edges="bottom-approaching right-exit"/>
    </vehicle>
    <vehicle id="L4-AV-182" type="L4-AV-Right-" depart="910.00">
        <route edges="left-long-approaching preparation left-short-approaching bottom-exit"/>
    </vehicle>
    <vehicle id="L4-AV-183" type="L4-AV-" depart="915.00">
        <route edges="right-approaching top-exit"/>
    </vehicle>
    <vehicle id="L4-AV-184" type="L4-AV-" depart="920.00">
        <route edges="left-long-approaching preparation left-short-approaching right-exit"/>
    </vehicle>
    <vehicle id="L4-AV-185" type="L4-AV-Left-" depart="925.00">
        <route edges="left-long-approaching preparation"/>
    </vehicle>
    <vehicle id="L4-AV-186" type="L4-AV-" depart="930.00">
        <route edges="right-approaching closed-lane remerging-lane left-exit"/>
    </vehicle>
    <vehicle id="L4-AV-189" type="L4-AV-" depart="945.00">
        <route edges="bottom-approaching closed-lane remerging-lane left-exit"/>
    </vehicle>
    <vehicle id="L4-AV-190" type="L4-AV-Left-" depart="950.00">
        <route edges="left-long-approaching preparation"/>
    </vehicle>
    <vehicle id="L4-AV-191" type="L4-AV-" depart="955.00">
        <route edges="bottom-approaching top-exit"/>
    </vehicle>
    <vehicle id="L4-AV-192" type="L4-AV-" depart="960.00">
        <route edges="left-long-approaching preparation left-short-approaching right-exit"/>
    </vehicle>
    <vehicle id="L4-AV-193" type="L4-AV-Left-" depart="965.00">
        <route edges="left-long-approaching preparation"/>
    </vehicle>
    <vehicle id="L4-AV-194" type="L4-AV-" depart="970.00">
        <route edges="top-approaching right-exit"/>
    </vehicle>
    <vehicle id="L4-AV-195" type="L4-AV-" depart="975.00">
        <route edges="left-long-approaching preparation left-short-approaching right-exit"/>
    </vehicle>
    <vehicle id="L4-AV-196" type="L4-AV-" depart="980.00">
        <route edges="top-approaching closed-lane remerging-lane left-exit"/>
    </vehicle>
    <vehicle id="L4-AV-197" type="L4-AV-" depart="985.00">
        <route edges="right-approaching top-exit"/>
    </vehicle>
    <vehicle id="L4-AV-198" type="L4-AV-Right-" depart="990.00">
        <route edges="left-long-approaching preparation left-short-approaching bottom-exit"/>
    </vehicle>
    <vehicle id="L4-AV-199" type="L4-AV-" depart="995.00">
        <route edges="bottom-approaching right-exit"/>
    </vehicle>
    <vehicle id="L4-AV-200" type="L4-AV-" depart="1000.00">
        <route edges="right-approaching top-exit"/>
    </vehicle>
    <vehicle id="L4-AV-201" type="L4-AV-" depart="1005.00">
        <route edges="top-approaching bottom-exit"/>
    </vehicle>
    <vehicle id="L4-AV-202" type="L4-AV-" depart="1010.00">
        <route edges="bottom-approaching closed-lane remerging-lane left-exit"/>
    </vehicle>
    <vehicle id="L4-AV-203" type="L4-AV-" depart="1015.00">
        <route edges="bottom-approaching right-exit"/>
    </vehicle>
    <vehicle id="L4-AV-205" type="L4-AV-Left-" depart="1025.00">
        <route edges="left-long-approaching preparation"/>
    </vehicle>
    <vehicle id="L4-AV-207" type="L4-AV-" depart="1035.00">
        <route edges="right-approaching bottom-exit"/>
    </vehicle>
    <vehicle id="L4-AV-208" type="L4-AV-" depart="1040.00">
        <route edges="bottom-approaching top-exit"/>
    </vehicle>
    <vehicle id="L4-AV-211" type="L4-AV-" depart="1055.00">
        <route edges="bottom-approaching closed-lane remerging-lane left-exit"/>
    </vehicle>
    <vehicle id="L4-AV-213" type="L4-AV-" depart="1065.00">
        <route edges="bottom-approaching right-exit"/>
    </vehicle>
    <vehicle id="L4-AV-214" type="L4-AV-" depart="1070.00">
        <route edges="top-approaching closed-lane remerging-lane left-exit"/>
    </vehicle>
    <vehicle id="L4-AV-215" type="L4-AV-" depart="1075.00">
        <route edges="right-approaching bottom-exit"/>
    </vehicle>
    <vehicle id="L4-AV-216" type="L4-AV-" depart="1080.00">
        <route edges="left-long-approaching preparation left-short-approaching right-exit"/>
    </vehicle>
    <vehicle id="L4-AV-217" type="L4-AV-" depart="1085.00">
        <route edges="bottom-approaching top-exit"/>
    </vehicle>
    <vehicle id="L4-AV-218" type="L4-AV-" depart="1090.00">
        <route edges="top-approaching bottom-exit"/>
    </vehicle>
    <vehicle id="L4-AV-219" type="L4-AV-" depart="1095.00">
        <route edges="top-approaching closed-lane remerging-lane left-exit"/>
    </vehicle>
    <vehicle id="L4-AV-221" type="L4-AV-" depart="1105.00">
        <route edges="left-long-approaching preparation left-short-approaching right-exit"/>
    </vehicle>
    <vehicle id="L4-AV-222" type="L4-AV-" depart="1110.00">
        <route edges="right-approaching top-exit"/>
    </vehicle>
    <vehicle id="L4-AV-223" type="L4-AV-Left-" depart="1115.00">
        <route edges="left-long-approaching preparation"/>
    </vehicle>
    <vehicle id="L4-AV-224" type="L4-AV-" depart="1120.00">
        <route edges="top-approaching right-exit"/>
    </vehicle>
    <vehicle id="L4-AV-225" type="L4-AV-" depart="1125.00">
        <route edges="right-approaching bottom-exit"/>
    </vehicle>
    <vehicle id="L4-AV-228" type="L4-AV-" depart="1140.00">
        <route edges="right-approaching bottom-exit"/>
    </vehicle>
    <vehicle id="L4-AV-230" type="L4-AV-" depart="1150.00">
        <route edges="bottom-approaching top-exit"/>
    </vehicle>
    <vehicle id="L4-AV-231" type="L4-AV-" depart="1155.00">
        <route edges="right-approaching bottom-exit"/>
    </vehicle>
    <vehicle id="L4-AV-232" type="L4-AV-" depart="1160.00">
        <route edges="top-approaching bottom-exit"/>
    </vehicle>
    <vehicle id="L4-AV-233" type="L4-AV-" depart="1165.00">
        <route edges="left-long-approaching preparation left-short-approaching right-exit"/>
    </vehicle>
    <vehicle id="L4-AV-235" type="L4-AV-" depart="1175.00">
        <route edges="right-approaching closed-lane remerging-lane left-exit"/>
    </vehicle>
    <vehicle id="L4-AV-236" type="L4-AV-Right-" depart="1180.00">
        <route edges="left-long-approaching preparation left-short-approaching bottom-exit"/>
    </vehicle>
    <vehicle id="L4-AV-237" type="L4-AV-" depart="1185.00">
        <route edges="bottom-approaching right-exit"/>
    </vehicle>
    <vehicle id="L4-AV-238" type="L4-AV-" depart="1190.00">
        <route edges="top-approaching right-exit"/>
    </vehicle>
    <vehicle id="L4-AV-239" type="L4-AV-" depart="1195.00">
        <route edges="right-approaching closed-lane remerging-lane left-exit"/>
    </vehicle>
    <vehicle id="L4-AV-241" type="L4-AV-" depart="1205.00">
        <route edges="top-approaching bottom-exit"/>
    </vehicle>
    <vehicle id="L4-AV-242" type="L4-AV-" depart="1210.00">
        <route edges="right-approaching bottom-exit"/>
    </vehicle>
    <vehicle id="L4-AV-243" type="L4-AV-" depart="1215.00">
        <route edges="top-approaching closed-lane remerging-lane left-exit"/>
    </vehicle>
    <vehicle id="L4-AV-245" type="L4-AV-" depart="1225.00">
        <route edges="right-approaching top-exit"/>
    </vehicle>
    <vehicle id="L4-AV-246" type="L4-AV-Left-" depart="1230.00">
        <route edges="left-long-approaching preparation"/>
    </vehicle>
    <vehicle id="L4-AV-247" type="L4-AV-" depart="1235.00">
        <route edges="bottom-approaching closed-lane remerging-lane left-exit"/>
    </vehicle>
    <vehicle id="L4-AV-249" type="L4-AV-" depart="1245.00">
        <route edges="top-approaching right-exit"/>
    </vehicle>
    <vehicle id="L4-AV-251" type="L4-AV-" depart="1255.00">
        <route edges="left-long-approaching preparation left-short-approaching right-exit"/>
    </vehicle>
    <vehicle id="L4-AV-252" type="L4-AV-" depart="1260.00">
        <route edges="top-approaching right-exit"/>
    </vehicle>
    <vehicle id="L4-AV-253" type="L4-AV-" depart="1265.00">
        <route edges="right-approaching bottom-exit"/>
    </vehicle>
    <vehicle id="L4-AV-254" type="L4-AV-Right-" depart="1270.00">
        <route edges="left-long-approaching preparation left-short-approaching bottom-exit"/>
    </vehicle>
    <vehicle id="L4-AV-256" type="L4-AV-" depart="1280.00">
        <route edges="bottom-approaching closed-lane remerging-lane left-exit"/>
    </vehicle>
    <vehicle id="L4-AV-257" type="L4-AV-" depart="1285.00">
        <route edges="top-approaching bottom-exit"/>
    </vehicle>
    <vehicle id="L4-AV-259" type="L4-AV-" depart="1295.00">
        <route edges="top-approaching closed-lane remerging-lane left-exit"/>
    </vehicle>
    <vehicle id="L4-AV-261" type="L4-AV-" depart="1305.00">
        <route edges="right-approaching top-exit"/>
    </vehicle>
    <vehicle id="L4-AV-262" type="L4-AV-" depart="1310.00">
        <route edges="right-approaching closed-lane remerging-lane left-exit"/>
    </vehicle>
    <vehicle id="L4-AV-263" type="L4-AV-" depart="1315.00">
        <route edges="top-approaching closed-lane remerging-lane left-exit"/>
    </vehicle>
    <vehicle id="L4-AV-265" type="L4-AV-" depart="1325.00">
        <route edges="bottom-approaching top-exit"/>
    </vehicle>
    <vehicle id="L4-AV-266" type="L4-AV-" depart="1330.00">
        <route edges="right-approaching closed-lane remerging-lane left-exit"/>
    </vehicle>
    <vehicle id="L4-AV-267" type="L4-AV-" depart="1335.00">
        <route edges="right-approaching closed-lane remerging-lane left-exit"/>
    </vehicle>
    <vehicle id="L4-AV-268" type="L4-AV-" depart="1340.00">
        <route edges="bottom-approaching right-exit"/>
    </vehicle>
    <vehicle id="L4-AV-270" type="L4-AV-" depart="1350.00">
        <route edges="right-approaching closed-lane remerging-lane left-exit"/>
    </vehicle>