<?xml version="1.0" ?><!-- generated on 03/30/21 22:56:10 by Eclipse SUMO duarouter Version 1.8.0
<configuration xmlns:xsi="http://www.w3.org/2001/XMLSchema-instance" xsi:noNamespaceSchemaLocation="http://sumo.dlr.de/xsd/duarouterConfiguration.xsd">

    <input>
        <net-file value="Roadworks/RoadworksIntersection.net.xml"/>
        <route-files value="trips.trips.xml"/>
    </input>

    <output>
        <output-file value="Roadworks/RealTMSPenetration2/Route-Files/L4-AV-Route.rou.xml"/>
        <alternatives-output value="Roadworks/RealTMSPenetration2/Route-Files/L4-AV-Route.rou.alt.xml"/>
    </output>

    <time>
        <begin value="0"/>
        <end value="3600"/>
    </time>

    <report>
        <no-warnings value="true"/>
        <ignore-errors value="true"/>
        <no-step-log value="true"/>
    </report>

</configuration>
--><routes xmlns:xsi="http://www.w3.org/2001/XMLSchema-instance" xsi:noNamespaceSchemaLocation="http://sumo.dlr.de/xsd/routes_file.xsd">
    <vehicle id="L4-AV-2" type="L4-AV-" depart="19.00">
        <route edges="bottom-approaching right-exit"/>
    </vehicle>
    <vehicle id="L4-AV-3" type="L4-AV-Left-" depart="28.50">
        <route edges="left-long-approaching preparation"/>
    </vehicle>
    <vehicle id="L4-AV-4" type="L4-AV-Left-" depart="38.00">
        <route edges="left-long-approaching preparation"/>
    </vehicle>
    <vehicle id="L4-AV-5" type="L4-AV-Left-" depart="47.50">
        <route edges="left-long-approaching preparation"/>
    </vehicle>
    <vehicle id="L4-AV-6" type="L4-AV-" depart="57.00">
        <route edges="right-approaching closed-lane remerging-lane left-exit"/>
    </vehicle>
    <vehicle id="L4-AV-8" type="L4-AV-" depart="76.00">
        <route edges="bottom-approaching right-exit"/>
    </vehicle>
    <vehicle id="L4-AV-9" type="L4-AV-" depart="85.50">
        <route edges="top-approaching closed-lane remerging-lane left-exit"/>
    </vehicle>
    <vehicle id="L4-AV-10" type="L4-AV-" depart="95.00">
        <route edges="top-approaching right-exit"/>
    </vehicle>
    <vehicle id="L4-AV-11" type="L4-AV-" depart="104.50">
        <route edges="top-approaching closed-lane remerging-lane left-exit"/>
    </vehicle>
    <vehicle id="L4-AV-12" type="L4-AV-" depart="114.00">
        <route edges="bottom-approaching top-exit"/>
    </vehicle>
    <vehicle id="L4-AV-13" type="L4-AV-" depart="123.50">
        <route edges="top-approaching closed-lane remerging-lane left-exit"/>
    </vehicle>
    <vehicle id="L4-AV-15" type="L4-AV-" depart="142.50">
        <route edges="right-approaching closed-lane remerging-lane left-exit"/>
    </vehicle>
    <vehicle id="L4-AV-16" type="L4-AV-" depart="152.00">
        <route edges="top-approaching right-exit"/>
    </vehicle>
    <vehicle id="L4-AV-17" type="L4-AV-" depart="161.50">
        <route edges="bottom-approaching right-exit"/>
    </vehicle>
    <vehicle id="L4-AV-18" type="L4-AV-Left-" depart="171.00">
        <route edges="left-long-approaching preparation"/>
    </vehicle>
    <vehicle id="L4-AV-19" type="L4-AV-" depart="180.50">
        <route edges="top-approaching right-exit"/>
    </vehicle>
    <vehicle id="L4-AV-22" type="L4-AV-" depart="209.00">
        <route edges="bottom-approaching closed-lane remerging-lane left-exit"/>
    </vehicle>
    <vehicle id="L4-AV-23" type="L4-AV-" depart="218.50">
        <route edges="right-approaching closed-lane remerging-lane left-exit"/>
    </vehicle>
    <vehicle id="L4-AV-24" type="L4-AV-" depart="228.00">
        <route edges="right-approaching bottom-exit"/>
    </vehicle>
    <vehicle id="L4-AV-25" type="L4-AV-" depart="237.50">
        <route edges="top-approaching right-exit"/>
    </vehicle>
    <vehicle id="L4-AV-26" type="L4-AV-" depart="247.00">
        <route edges="bottom-approaching right-exit"/>
    </vehicle>
    <vehicle id="L4-AV-27" type="L4-AV-Right-" depart="256.50">
        <route edges="left-long-approaching preparation left-short-approaching bottom-exit"/>
    </vehicle>
    <vehicle id="L4-AV-28" type="L4-AV-Right-" depart="266.00">
        <route edges="left-long-approaching preparation left-short-approaching bottom-exit"/>
    </vehicle>
    <vehicle id="L4-AV-29" type="L4-AV-" depart="275.50">
        <route edges="bottom-approaching top-exit"/>
    </vehicle>
    <vehicle id="L4-AV-30" type="L4-AV-" depart="285.00">
        <route edges="right-approaching bottom-exit"/>
    </vehicle>
    <vehicle id="L4-AV-31" type="L4-AV-" depart="294.50">
        <route edges="top-approaching bottom-exit"/>
    </vehicle>
    <vehicle id="L4-AV-32" type="L4-AV-Left-" depart="304.00">
        <route edges="left-long-approaching preparation"/>
    </vehicle>
    <vehicle id="L4-AV-33" type="L4-AV-" depart="313.50">
        <route edges="right-approaching closed-lane remerging-lane left-exit"/>
    </vehicle>
    <vehicle id="L4-AV-35" type="L4-AV-" depart="332.50">
        <route edges="bottom-approaching top-exit"/>
    </vehicle>
    <vehicle id="L4-AV-36" type="L4-AV-" depart="342.00">
        <route edges="bottom-approaching closed-lane remerging-lane left-exit"/>
    </vehicle>
    <vehicle id="L4-AV-37" type="L4-AV-" depart="351.50">
        <route edges="right-approaching closed-lane remerging-lane left-exit"/>
    </vehicle>
    <vehicle id="L4-AV-38" type="L4-AV-" depart="361.00">
        <route edges="top-approaching bottom-exit"/>
    </vehicle>
    <vehicle id="L4-AV-40" type="L4-AV-" depart="380.00">
        <route edges="right-approaching top-exit"/>
    </vehicle>
    <vehicle id="L4-AV-41" type="L4-AV-Left-" depart="389.50">
        <route edges="left-long-approaching preparation"/>
    </vehicle>
    <vehicle id="L4-AV-42" type="L4-AV-" depart="399.00">
        <route edges="top-approaching right-exit"/>
    </vehicle>
    <vehicle id="L4-AV-43" type="L4-AV-" depart="408.50">
        <route edges="left-long-approaching preparation left-short-approaching right-exit"/>
    </vehicle>
    <vehicle id="L4-AV-44" type="L4-AV-Right-" depart="418.00">
        <route edges="left-long-approaching preparation left-short-approaching bottom-exit"/>
    </vehicle>
    <vehicle id="L4-AV-45" type="L4-AV-" depart="427.50">
        <route edges="right-approaching closed-lane remerging-lane left-exit"/>
    </vehicle>
    <vehicle id="L4-AV-46" type="L4-AV-Left-" depart="437.00">
        <route edges="left-long-approaching preparation"/>
    </vehicle>
    <vehicle id="L4-AV-48" type="L4-AV-" depart="456.00">
        <route edges="bottom-approaching right-exit"/>
    </vehicle>
    <vehicle id="L4-AV-50" type="L4-AV-Left-" depart="475.00">
        <route edges="left-long-approaching preparation"/>
    </vehicle>
    <vehicle id="L4-AV-52" type="L4-AV-" depart="494.00">
        <route edges="top-approaching right-exit"/>
    </vehicle>
    <vehicle id="L4-AV-54" type="L4-AV-Right-" depart="513.00">
        <route edges="left-long-approaching preparation left-short-approaching bottom-exit"/>
    </vehicle>
    <vehicle id="L4-AV-56" type="L4-AV-" depart="532.00">
        <route edges="top-approaching closed-lane remerging-lane left-exit"/>
    </vehicle>
    <vehicle id="L4-AV-57" type="L4-AV-" depart="541.50">
        <route edges="right-approaching top-exit"/>
    </vehicle>
    <vehicle id="L4-AV-58" type="L4-AV-" depart="551.00">
        <route edges="top-approaching closed-lane remerging-lane left-exit"/>
    </vehicle>
    <vehicle id="L4-AV-59" type="L4-AV-" depart="560.50">
        <route edges="right-approaching closed-lane remerging-lane left-exit"/>
    </vehicle>
    <vehicle id="L4-AV-62" type="L4-AV-Right-" depart="589.00">
        <route edges="left-long-approaching preparation left-short-approaching bottom-exit"/>
    </vehicle>
    <vehicle id="L4-AV-63" type="L4-AV-Right-" depart="598.50">
        <route edges="left-long-approaching preparation left-short-approaching bottom-exit"/>
    </vehicle>
    <vehicle id="L4-AV-64" type="L4-AV-" depart="608.00">
        <route edges="bottom-approaching top-exit"/>
    </vehicle>
    <vehicle id="L4-AV-65" type="L4-AV-" depart="617.50">
        <route edges="bottom-approaching right-exit"/>
    </vehicle>
    <vehicle id="L4-AV-66" type="L4-AV-Left-" depart="627.00">
        <route edges="left-long-approaching preparation"/>
    </vehicle>
    <vehicle id="L4-AV-67" type="L4-AV-" depart="636.50">
        <route edges="top-approaching bottom-exit"/>
    </vehicle>
    <vehicle id="L4-AV-68" type="L4-AV-" depart="646.00">
        <route edges="bottom-approaching top-exit"/>
    </vehicle>
    <vehicle id="L4-AV-69" type="L4-AV-" depart="655.50">
        <route edges="right-approaching closed-lane remerging-lane left-exit"/>
    </vehicle>
    <vehicle id="L4-AV-72" type="L4-AV-" depart="684.00">
        <route edges="bottom-approaching closed-lane remerging-lane left-exit"/>
    </vehicle>
    <vehicle id="L4-AV-73" type="L4-AV-" depart="693.50">
        <route edges="bottom-approaching right-exit"/>
    </vehicle>
    <vehicle id="L4-AV-74" type="L4-AV-" depart="703.00">
        <route edges="right-approaching bottom-exit"/>
    </vehicle>
    <vehicle id="L4-AV-75" type="L4-AV-" depart="712.50">
        <route edges="right-approaching bottom-exit"/>
    </vehicle>
    <vehicle id="L4-AV-76" type="L4-AV-" depart="722.00">
        <route edges="bottom-approaching right-exit"/>
    </vehicle>
    <vehicle id="L4-AV-77" type="L4-AV-Left-" depart="731.50">
        <route edges="left-long-approaching preparation"/>
    </vehicle>
    <vehicle id="L4-AV-79" type="L4-AV-" depart="750.50">
        <route edges="bottom-approaching top-exit"/>
    </vehicle>
    <vehicle id="L4-AV-80" type="L4-AV-" depart="760.00">
        <route edges="bottom-approaching right-exit"/>
    </vehicle>
    <vehicle id="L4-AV-82" type="L4-AV-" depart="779.00">
        <route edges="top-approaching closed-lane remerging-lane left-exit"/>
    </vehicle>
    <vehicle id="L4-AV-83" type="L4-AV-" depart="788.50">
        <route edges="right-approaching top-exit"/>
    </vehicle>
    <vehicle id="L4-AV-84" type="L4-AV-" depart="798.00">
        <route edges="bottom-approaching top-exit"/>
    </vehicle>
    <vehicle id="L4-AV-85" type="L4-AV-" depart="807.50">
        <route edges="top-approaching closed-lane remerging-lane left-exit"/>
    </vehicle>
    <vehicle id="L4-AV-86" type="L4-AV-" depart="817.00">
        <route edges="top-approaching closed-lane remerging-lane left-exit"/>
    </vehicle>
    <vehicle id="L4-AV-87" type="L4-AV-" depart="826.50">
        <route edges="left-long-approaching preparation left-short-approaching right-exit"/>
    </vehicle>
    <vehicle id="L4-AV-88" type="L4-AV-" depart="836.00">
        <route edges="bottom-approaching top-exit"/>
    </vehicle>
    <vehicle id="L4-AV-89" type="L4-AV-" depart="845.50">
        <route edges="top-approaching closed-lane remerging-lane left-exit"/>
    </vehicle>
    <vehicle id="L4-AV-90" type="L4-AV-" depart="855.00">
        <route edges="top-approaching bottom-exit"/>
    </vehicle>
    <vehicle id="L4-AV-91" type="L4-AV-" depart="864.50">
        <route edges="top-approaching closed-lane remerging-lane left-exit"/>
    </vehicle>
    <vehicle id="L4-AV-92" type="L4-AV-" depart="874.00">
        <route edges="top-approaching closed-lane remerging-lane left-exit"/>
    </vehicle>
    <vehicle id="L4-AV-93" type="L4-AV-" depart="883.50">
        <route edges="top-approaching bottom-exit"/>
    </vehicle>
    <vehicle id="L4-AV-94" type="L4-AV-" depart="893.00">
        <route edges="bottom-approaching top-exit"/>
    </vehicle>
    <vehicle id="L4-AV-97" type="L4-AV-Right-" depart="921.50">
        <route edges="left-long-approaching preparation left-short-approaching bottom-exit"/>
    </vehicle>
    <vehicle id="L4-AV-99" type="L4-AV-" depart="940.50">
        <route edges="top-approaching right-exit"/>
    </vehicle>
    <vehicle id="L4-AV-100" type="L4-AV-Right-" depart="950.00">
        <route edges="left-long-approaching preparation left-short-approaching bottom-exit"/>
    </vehicle>
    <vehicle id="L4-AV-101" type="L4-AV-" depart="959.50">
        <route edges="right-approaching bottom-exit"/>
    </vehicle>
    <vehicle id="L4-AV-102" type="L4-AV-" depart="969.00">
        <route edges="right-approaching closed-lane remerging-lane left-exit"/>
    </vehicle>
    <vehicle id="L4-AV-103" type="L4-AV-Right-" depart="978.50">
        <route edges="left-long-approaching preparation left-short-approaching bottom-exit"/>
    </vehicle>
    <vehicle id="L4-AV-104" type="L4-AV-" depart="988.00">
        <route edges="bottom-approaching right-exit"/>
    </vehicle>
    <vehicle id="L4-AV-105" type="L4-AV-" depart="997.50">
        <route edges="bottom-approaching right-exit"/>
    </vehicle>
    <vehicle id="L4-AV-106" type="L4-AV-" depart="1007.00">
        <route edges="bottom-approaching closed-lane remerging-lane left-exit"/>
    </vehicle>
    <vehicle id="L4-AV-107" type="L4-AV-" depart="1016.50">
        <route edges="bottom-approaching right-exit"/>
    </vehicle>
    <vehicle id="L4-AV-108" type="L4-AV-Right-" depart="1026.00">
        <route edges="left-long-approaching preparation left-short-approaching bottom-exit"/>
    </vehicle>
    <vehicle id="L4-AV-109" type="L4-AV-" depart="1035.50">
        <route edges="bottom-approaching right-exit"/>
    </vehicle>
    <vehicle id="L4-AV-110" type="L4-AV-" depart="1045.00">
        <route edges="top-approaching closed-lane remerging-lane left-exit"/>
    </vehicle>
    <vehicle id="L4-AV-111" type="L4-AV-" depart="1054.50">
        <route edges="bottom-approaching closed-lane remerging-lane left-exit"/>
    </vehicle>
    <vehicle id="L4-AV-112" type="L4-AV-" depart="1064.00">
        <route edges="bottom-approaching right-exit"/>
    </vehicle>
    <vehicle id="L4-AV-113" type="L4-AV-" depart="1073.50">
        <route edges="top-approaching right-exit"/>
    </vehicle>
    <vehicle id="L4-AV-114" type="L4-AV-" depart="1083.00">
        <route edges="bottom-approaching closed-lane remerging-lane left-exit"/>
    </vehicle>
    <vehicle id="L4-AV-116" type="L4-AV-Left-" depart="1102.00">
        <route edges="left-long-approaching preparation"/>
    </vehicle>
    <vehicle id="L4-AV-119" type="L4-AV-" depart="1130.50">
        <route edges="top-approaching closed-lane remerging-lane left-exit"/>
    </vehicle>
    <vehicle id="L4-AV-120" type="L4-AV-" depart="1140.00">
        <route edges="right-approaching top-exit"/>
    </vehicle>
    <vehicle id="L4-AV-121" type="L4-AV-" depart="1149.50">
        <route edges="bottom-approaching right-exit"/>
    </vehicle>
    <vehicle id="L4-AV-122" type="L4-AV-Right-" depart="1159.00">
        <route edges="left-long-approaching preparation left-short-approaching bottom-exit"/>
    </vehicle>
    <vehicle id="L4-AV-123" type="L4-AV-" depart="1168.50">
        <route edges="bottom-approaching top-exit"/>
    </vehicle>
    <vehicle id="L4-AV-124" type="L4-AV-" depart="1178.00">
        <route edges="bottom-approaching right-exit"/>
    </vehicle>
    <vehicle id="L4-AV-125" type="L4-AV-" depart="1187.50">
        <route edges="bottom-approaching closed-lane remerging-lane left-exit"/>
    </vehicle>
    <vehicle id="L4-AV-126" type="L4-AV-" depart="1197.00">
        <route edges="bottom-approaching right-exit"/>
    </vehicle>
    <vehicle id="L4-AV-127" type="L4-AV-" depart="1206.50">
        <route edges="top-approaching bottom-exit"/>
    </vehicle>
    <vehicle id="L4-AV-128" type="L4-AV-" depart="1216.00">
        <route edges="right-approaching top-exit"/>
    </vehicle>
    <vehicle id="L4-AV-130" type="L4-AV-" depart="1235.00">
        <route edges="right-approaching top-exit"/>
    </vehicle>
    <vehicle id="L4-AV-131" type="L4-AV-" depart="1244.50">
        <route edges="bottom-approaching right-exit"/>
    </vehicle>
    <vehicle id="L4-AV-133" type="L4-AV-" depart="1263.50">
        <route edges="top-approaching bottom-exit"/>
    </vehicle>
    <vehicle id="L4-AV-134" type="L4-AV-" depart="1273.00">
        <route edges="top-approaching right-exit"/>
    </vehicle>
    <vehicle id="L4-AV-136" type="L4-AV-" depart="1292.00">
        <route edges="right-approaching closed-lane remerging-lane left-exit"/>
    </vehicle>
    <vehicle id="L4-AV-137" type="L4-AV-Right-" depart="1301.50">
        <route edges="left-long-approaching preparation left-short-approaching bottom-exit"/>
    </vehicle>
    <vehicle id="L4-AV-139" type="L4-AV-" depart="1320.50">
        <route edges="top-approaching bottom-exit"/>
    </vehicle>
    <vehicle id="L4-AV-140" type="L4-AV-" depart="1330.00">
        <route edges="right-approaching closed-lane remerging-lane left-exit"/>
    </vehicle>
    <vehicle id="L4-AV-141" type="L4-AV-" depart="1339.50">
        <route edges="top-approaching right-exit"/>
    </vehicle>
    <vehicle id="L4-AV-142" type="L4-AV-" depart="1349.00">
        <route edges="top-approaching right-exit"/>
    </vehicle>
    <vehicle id="L4-AV-143" type="L4-AV-" depart="1358.50">
        <route edges="right-approaching top-exit"/>
    </vehicle>
    <vehicle id="L4-AV-144" type="L4-AV-" depart="1368.00">
        <route edges="bottom-approaching right-exit"/>
    </vehicle>
    <vehicle id="L4-AV-145" type="L4-AV-" depart="1377.50">
        <route edges="bottom-approaching closed-lane remerging-lane left-exit"/>
    </vehicle>
    <vehicle id="L4-AV-146" type="L4-AV-" depart="1387.00">
        <route edges="bottom-approaching top-exit"/>
    </vehicle>
    <vehicle id="L4-AV-147" type="L4-AV-" depart="1396.50">
        <route edges="bottom-approaching top-exit"/>
    </vehicle>
    <vehicle id="L4-AV-148" type="L4-AV-" depart="1406.00">
        <route edges="top-approaching closed-lane remerging-lane left-exit"/>
    </vehicle>
    <vehicle id="L4-AV-149" type="L4-AV-" depart="1415.50">
        <route edges="top-approaching bottom-exit"/>
    </vehicle>
    <vehicle id="L4-AV-152" type="L4-AV-" depart="1444.00">
        <route edges="top-approaching bottom-exit"/>
    </vehicle>
    <vehicle id="L4-AV-153" type="L4-AV-" depart="1453.50">
        <route edges="right-approaching closed-lane remerging-lane left-exit"/>
    </vehicle>
    <vehicle id="L4-AV-154" type="L4-AV-" depart="1463.00">
        <route edges="bottom-approaching closed-lane remerging-lane left-exit"/>
    </vehicle>
    <vehicle id="L4-AV-155" type="L4-AV-" depart="1472.50">
        <route edges="bottom-approaching top-exit"/>
    </vehicle>
    <vehicle id="L4-AV-156" type="L4-AV-" depart="1482.00">
        <route edges="left-long-approaching preparation left-short-approaching right-exit"/>
    </vehicle>
    <vehicle id="L4-AV-159" type="L4-AV-" depart="1510.50">
        <route edges="bottom-approaching top-exit"/>
    </vehicle>
    <vehicle id="L4-AV-160" type="L4-AV-" depart="1520.00">
        <route edges="bottom-approaching closed-lane remerging-lane left-exit"/>
    </vehicle>
    <vehicle id="L4-AV-161" type="L4-AV-" depart="1529.50">
        <route edges="top-approaching right-exit"/>
    </vehicle>
    <vehicle id="L4-AV-163" type="L4-AV-" depart="1548.50">
        <route edges="right-approaching bottom-exit"/>
    </vehicle>
    <vehicle id="L4-AV-164" type="L4-AV-" depart="1558.00">
        <route edges="right-approaching closed-lane remerging-lane left-exit"/>
    </vehicle>
    <vehicle id="L4-AV-165" type="L4-AV-" depart="1567.50">
        <route edges="top-approaching right-exit"/>
    </vehicle>
    <vehicle id="L4-AV-166" type="L4-AV-" depart="1577.00">
        <route edges="right-approaching top-exit"/>
    </vehicle>
    <vehicle id="L4-AV-167" type="L4-AV-Left-" depart="1586.50">
        <route edges="left-long-approaching preparation"/>
    </vehicle>
    <vehicle id="L4-AV-168" type="L4-AV-" depart="1596.00">
        <route edges="top-approaching bottom-exit"/>
    </vehicle>
    <vehicle id="L4-AV-170" type="L4-AV-" depart="1615.00">
        <route edges="top-approaching closed-lane remerging-lane left-exit"/>
    </vehicle>
    <vehicle id="L4-AV-171" type="L4-AV-Right-" depart="1624.50">
        <route edges="left-long-approaching preparation left-short-approaching bottom-exit"/>
    </vehicle>
    <vehicle id="L4-AV-172" type="L4-AV-Left-" depart="1634.00">
        <route edges="left-long-approaching preparation"/>
    </vehicle>
    <vehicle id="L4-AV-173" type="L4-AV-Right-" depart="1643.50">
        <route edges="left-long-approaching preparation left-short-approaching bottom-exit"/>
    </vehicle>
    <vehicle id="L4-AV-174" type="L4-AV-Right-" depart="1653.00">
        <route edges="left-long-approaching preparation left-short-approaching bottom-exit"/>
    </vehicle>
    <vehicle id="L4-AV-175" type="L4-AV-" depart="1662.50">
        <route edges="right-approaching top-exit"/>
    </vehicle>
    <vehicle id="L4-AV-176" type="L4-AV-" depart="1672.00">
        <route edges="top-approaching bottom-exit"/>
    </vehicle>
    <vehicle id="L4-AV-177" type="L4-AV-Right-" depart="1681.50">
        <route edges="left-long-approaching preparation left-short-approaching bottom-exit"/>
    </vehicle>
    <vehicle id="L4-AV-179" type="L4-AV-" depart="1700.50">
        <route edges="right-approaching top-exit"/>
    </vehicle>
    <vehicle id="L4-AV-180" type="L4-AV-" depart="1710.00">
        <route edges="right-approaching top-exit"/>
    </vehicle>
    <vehicle id="L4-AV-183" type="L4-AV-" depart="1738.50">
        <route edges="right-approaching top-exit"/>
    </vehicle>
    <vehicle id="L4-AV-184" type="L4-AV-" depart="1748.00">
        <route edges="right-approaching top-exit"/>
    </vehicle>
    <vehicle id="L4-AV-186" type="L4-AV-" depart="1767.00">
        <route edges="bottom-approaching right-exit"/>
    </vehicle>
    <vehicle id="L4-AV-187" type="L4-AV-" depart="1776.50">
        <route edges="right-approaching bottom-exit"/>
    </vehicle>
    <vehicle id="L4-AV-188" type="L4-AV-" depart="1786.00">
        <route edges="right-approaching bottom-exit"/>
    </vehicle>
    <vehicle id="L4-AV-189" type="L4-AV-" depart="1795.50">
        <route edges="right-approaching top-exit"/>
    </vehicle>
    <vehicle id="L4-AV-190" type="L4-AV-" depart="1805.00">
        <route edges="bottom-approaching top-exit"/>
    </vehicle>
    <vehicle id="L4-AV-191" type="L4-AV-" depart="1814.50">
        <route edges="right-approaching bottom-exit"/>
    </vehicle>
    <vehicle id="L4-AV-192" type="L4-AV-Right-" depart="1824.00">
        <route edges="left-long-approaching preparation left-short-approaching bottom-exit"/>
    </vehicle>
    <vehicle id="L4-AV-193" type="L4-AV-" depart="1833.50">
        <route edges="right-approaching top-exit"/>
    </vehicle>
    <vehicle id="L4-AV-195" type="L4-AV-" depart="1852.50">
        <route edges="right-approaching top-exit"/>
    </vehicle>
    <vehicle id="L4-AV-196" type="L4-AV-" depart="1862.00">
        <route edges="right-approaching closed-lane remerging-lane left-exit"/>
    </vehicle>
    <vehicle id="L4-AV-197" type="L4-AV-" depart="1871.50">
        <route edges="bottom-approaching right-exit"/>
    </vehicle>
    <vehicle id="L4-AV-198" type="L4-AV-Left-" depart="1881.00">
        <route edges="left-long-approaching preparation"/>
    </vehicle>
    <vehicle id="L4-AV-200" type="L4-AV-" depart="1900.00">
        <route edges="top-approaching right-exit"/>
    </vehicle>
    <vehicle id="L4-AV-201" type="L4-AV-" depart="1909.50">
        <route edges="top-approaching closed-lane remerging-lane left-exit"/>
    </vehicle>
    <vehicle id="L4-AV-202" type="L4-AV-" depart="1919.00">
        <route edges="bottom-approaching top-exit"/>
    </vehicle>
    <vehicle id="L4-AV-203" type="L4-AV-" depart="1928.50">
        <route edges="bottom-approaching top-exit"/>
    </vehicle>
    <vehicle id="L4-AV-204" type="L4-AV-Right-" depart="1938.00">
        <route edges="left-long-approaching preparation left-short-approaching bottom-exit"/>
    </vehicle>
    <vehicle id="L4-AV-205" type="L4-AV-" depart="1947.50">
        <route edges="left-long-approaching preparation left-short-approaching right-exit"/>
    </vehicle>
    <vehicle id="L4-AV-206" type="L4-AV-" depart="1957.00">
        <route edges="left-long-approaching preparation left-short-approaching right-exit"/>
    </vehicle>
    <vehicle id="L4-AV-207" type="L4-AV-" depart="1966.50">
        <route edges="bottom-approaching top-exit"/>
    </vehicle>
    <vehicle id="L4-AV-208" type="L4-AV-Left-" depart="1976.00">
        <route edges="left-long-approaching preparation"/>
    </vehicle>
    <vehicle id="L4-AV-209" type="L4-AV-" depart="1985.50">
        <route edges="bottom-approaching right-exit"/>
    </vehicle>
    <vehicle id="L4-AV-211" type="L4-AV-" depart="2004.50">
        <route edges="bottom-approaching right-exit"/>
    </vehicle>
    <vehicle id="L4-AV-212" type="L4-AV-" depart="2014.00">
        <route edges="top-approaching bottom-exit"/>
    </vehicle>
    <vehicle id="L4-AV-213" type="L4-AV-Right-" depart="2023.50">
        <route edges="left-long-approaching preparation left-short-approaching bottom-exit"/>
    </vehicle>
    <vehicle id="L4-AV-215" type="L4-AV-" depart="2042.50">
        <route edges="right-approaching closed-lane remerging-lane left-exit"/>
    </vehicle>
    <vehicle id="L4-AV-217" type="L4-AV-" depart="2061.50">
        <route edges="right-approaching top-exit"/>
    </vehicle>
    <vehicle id="L4-AV-220" type="L4-AV-" depart="2090.00">
        <route edges="right-approaching closed-lane remerging-lane left-exit"/>
    </vehicle>
    <vehicle id="L4-AV-221" type="L4-AV-" depart="2099.50">
        <route edges="right-approaching top-exit"/>
    </vehicle>
    <vehicle id="L4-AV-222" type="L4-AV-Left-" depart="2109.00">
        <route edges="left-long-approaching preparation"/>
    </vehicle>
    <vehicle id="L4-AV-223" type="L4-AV-" depart="2118.50">
        <route edges="right-approaching bottom-exit"/>
    </vehicle>
    <vehicle id="L4-AV-225" type="L4-AV-" depart="2137.50">
        <route edges="right-approaching bottom-exit"/>
    </vehicle>
    <vehicle id="L4-AV-226" type="L4-AV-" depart="2147.00">
        <route edges="top-approaching closed-lane remerging-lane left-exit"/>
    </vehicle>
    <vehicle id="L4-AV-227" type="L4-AV-" depart="2156.50">
        <route edges="right-approaching bottom-exit"/>
    </vehicle>
    <vehicle id="L4-AV-229" type="L4-AV-" depart="2175.50">
        <route edges="bottom-approaching closed-lane remerging-lane left-exit"/>
    </vehicle>
    <vehicle id="L4-AV-232" type="L4-AV-" depart="2204.00">
        <route edges="top-approaching bottom-exit"/>
    </vehicle>
    <vehicle id="L4-AV-234" type="L4-AV-" depart="2223.00">
        <route edges="bottom-approaching top-exit"/>
    </vehicle>
    <vehicle id="L4-AV-235" type="L4-AV-Right-" depart="2232.50">
        <route edges="left-long-approaching preparation left-short-approaching bottom-exit"/>
    </vehicle>
    <vehicle id="L4-AV-236" type="L4-AV-" depart="2242.00">
        <route edges="bottom-approaching top-exit"/>
    </vehicle>
    <vehicle id="L4-AV-237" type="L4-AV-" depart="2251.50">
        <route edges="bottom-approaching closed-lane remerging-lane left-exit"/>
    </vehicle>
    <vehicle id="L4-AV-238" type="L4-AV-" depart="2261.00">
        <route edges="right-approaching closed-lane remerging-lane left-exit"/>
    </vehicle>
    <vehicle id="L4-AV-239" type="L4-AV-" depart="2270.50">
        <route edges="right-approaching bottom-exit"/>
    </vehicle>
    <vehicle id="L4-AV-240" type="L4-AV-" depart="2280.00">
        <route edges="left-long-approaching preparation left-short-approaching right-exit"/>
    </vehicle>
    <vehicle id="L4-AV-242" type="L4-AV-" depart="2299.00">
        <route edges="left-long-approaching preparation left-short-approaching right-exit"/>
    </vehicle>
    <vehicle id="L4-AV-243" type="L4-AV-" depart="2308.50">
        <route edges="top-approaching closed-lane remerging-lane left-exit"/>
    </vehicle>
    <vehicle id="L4-AV-244" type="L4-AV-" depart="2318.00">
        <route edges="right-approaching top-exit"/>
    </vehicle>
    <vehicle id="L4-AV-246" type="L4-AV-" depart="2337.00">
        <route edges="top-approaching closed-lane remerging-lane left-exit"/>
    </vehicle>
    <vehicle id="L4-AV-248" type="L4-AV-" depart="2356.00">
        <route edges="top-approaching right-exit"/>
    </vehicle>
    <vehicle id="L4-AV-249" type="L4-AV-" depart="2365.50">
        <route edges="top-approaching bottom-exit"/>
    </vehicle>
    <vehicle id="L4-AV-250" type="L4-AV-" depart="2375.00">
        <route edges="left-long-approaching preparation left-short-approaching right-exit"/>
    </vehicle>
    <vehicle id="L4-AV-251" type="L4-AV-" depart="2384.50">
        <route edges="left-long-approaching preparation left-short-approaching right-exit"/>
    </vehicle>
    <vehicle id="L4-AV-252" type="L4-AV-" depart="2394.00">
        <route edges="right-approaching bottom-exit"/>
    </vehicle>
    <vehicle id="L4-AV-253" type="L4-AV-" depart="2403.50">
        <route edges="bottom-approaching closed-lane remerging-lane left-exit"/>
    </vehicle>
    <vehicle id="L4-AV-254" type="L4-AV-" depart="2413.00">
        <route edges="right-approaching bottom-exit"/>
    </vehicle>
    <vehicle id="L4-AV-255" type="L4-AV-Right-" depart="2422.50">
        <route edges="left-long-approaching preparation left-short-approaching bottom-exit"/>
    </vehicle>
    <vehicle id="L4-AV-257" type="L4-AV-" depart="2441.50">
        <route edges="left-long-approaching preparation left-short-approaching right-exit"/>
    </vehicle>
    <vehicle id="L4-AV-258" type="L4-AV-" depart="2451.00">
        <route edges="top-approaching right-exit"/>
    </vehicle>
    <vehicle id="L4-AV-259" type="L4-AV-" depart="2460.50">
        <route edges="right-approaching closed-lane remerging-lane left-exit"/>
    </vehicle>