<?xml version="1.0" ?><!-- generated on 03/22/21 00:11:11 by Eclipse SUMO duarouter Version 1.8.0
<configuration xmlns:xsi="http://www.w3.org/2001/XMLSchema-instance" xsi:noNamespaceSchemaLocation="http://sumo.dlr.de/xsd/duarouterConfiguration.xsd">

    <input>
        <net-file value="Roadworks/RoadworksIntersection.net.xml"/>
        <route-files value="trips.trips.xml"/>
    </input>

    <output>
        <output-file value="Roadworks/RealTMSPenetration2/Route-Files/L4-CV-Route.rou.xml"/>
        <alternatives-output value="Roadworks/RealTMSPenetration2/Route-Files/L4-CV-Route.rou.alt.xml"/>
    </output>

    <time>
        <begin value="0"/>
        <end value="3600"/>
    </time>

    <report>
        <no-warnings value="true"/>
        <ignore-errors value="true"/>
        <no-step-log value="true"/>
    </report>

</configuration>
--><routes xmlns:xsi="http://www.w3.org/2001/XMLSchema-instance" xsi:noNamespaceSchemaLocation="http://sumo.dlr.de/xsd/routes_file.xsd">
    <vehicle id="L4-CV-0" type="L4-CV-" depart="0.00">
        <route edges="bottom-approaching top-exit"/>
    </vehicle>
    <vehicle id="L4-CV-1" type="L4-CV-" depart="2.69">
        <route edges="bottom-approaching right-exit"/>
    </vehicle>
    <vehicle id="L4-CV-3" type="L4-CV-" depart="8.07">
        <route edges="top-approaching bottom-exit"/>
    </vehicle>
    <vehicle id="L4-CV-4" type="L4-CV-" depart="10.76">
        <route edges="right-approaching closed-lane remerging-lane left-exit"/>
    </vehicle>
    <vehicle id="L4-CV-6" type="L4-CV-" depart="16.14">
        <route edges="bottom-approaching top-exit"/>
    </vehicle>
    <vehicle id="L4-CV-8" type="L4-CV-" depart="21.52">
        <route edges="bottom-approaching closed-lane remerging-lane left-exit"/>
    </vehicle>
    <vehicle id="L4-CV-9" type="L4-CV-Left-" depart="24.21">
        <route edges="left-long-approaching preparation"/>
    </vehicle>
    <vehicle id="L4-CV-10" type="L4-CV-Right-" depart="26.90">
        <route edges="left-long-approaching preparation left-short-approaching bottom-exit"/>
    </vehicle>
    <vehicle id="L4-CV-11" type="L4-CV-Left-" depart="29.59">
        <route edges="left-long-approaching preparation"/>
    </vehicle>
    <vehicle id="L4-CV-12" type="L4-CV-" depart="32.28">
        <route edges="bottom-approaching right-exit"/>
    </vehicle>
    <vehicle id="L4-CV-13" type="L4-CV-" depart="34.97">
        <route edges="left-long-approaching preparation left-short-approaching right-exit"/>
    </vehicle>
    <vehicle id="L4-CV-14" type="L4-CV-" depart="37.66">
        <route edges="left-long-approaching preparation left-short-approaching right-exit"/>
    </vehicle>
    <vehicle id="L4-CV-15" type="L4-CV-" depart="40.35">
        <route edges="left-long-approaching preparation left-short-approaching right-exit"/>
    </vehicle>
    <vehicle id="L4-CV-16" type="L4-CV-" depart="43.04">
        <route edges="top-approaching right-exit"/>
    </vehicle>
    <vehicle id="L4-CV-18" type="L4-CV-" depart="48.42">
        <route edges="top-approaching closed-lane remerging-lane left-exit"/>
    </vehicle>
    <vehicle id="L4-CV-19" type="L4-CV-" depart="51.11">
        <route edges="bottom-approaching top-exit"/>
    </vehicle>
    <vehicle id="L4-CV-21" type="L4-CV-" depart="56.49">
        <route edges="top-approaching closed-lane remerging-lane left-exit"/>
    </vehicle>
    <vehicle id="L4-CV-22" type="L4-CV-Left-" depart="59.18">
        <route edges="left-long-approaching preparation"/>
    </vehicle>
    <vehicle id="L4-CV-23" type="L4-CV-" depart="61.87">
        <route edges="bottom-approaching top-exit"/>
    </vehicle>
    <vehicle id="L4-CV-24" type="L4-CV-" depart="64.56">
        <route edges="bottom-approaching right-exit"/>
    </vehicle>
    <vehicle id="L4-CV-25" type="L4-CV-" depart="67.25">
        <route edges="right-approaching top-exit"/>
    </vehicle>
    <vehicle id="L4-CV-29" type="L4-CV-" depart="78.01">
        <route edges="bottom-approaching top-exit"/>
    </vehicle>
    <vehicle id="L4-CV-32" type="L4-CV-" depart="86.08">
        <route edges="bottom-approaching closed-lane remerging-lane left-exit"/>
    </vehicle>
    <vehicle id="L4-CV-34" type="L4-CV-Left-" depart="91.46">
        <route edges="left-long-approaching preparation"/>
    </vehicle>
    <vehicle id="L4-CV-35" type="L4-CV-" depart="94.15">
        <route edges="top-approaching bottom-exit"/>
    </vehicle>
    <vehicle id="L4-CV-36" type="L4-CV-Right-" depart="96.84">
        <route edges="left-long-approaching preparation left-short-approaching bottom-exit"/>
    </vehicle>
    <vehicle id="L4-CV-37" type="L4-CV-" depart="99.53">
        <route edges="right-approaching top-exit"/>
    </vehicle>
    <vehicle id="L4-CV-38" type="L4-CV-" depart="102.22">
        <route edges="bottom-approaching top-exit"/>
    </vehicle>
    <vehicle id="L4-CV-39" type="L4-CV-Right-" depart="104.91">
        <route edges="left-long-approaching preparation left-short-approaching bottom-exit"/>
    </vehicle>
    <vehicle id="L4-CV-40" type="L4-CV-" depart="107.60">
        <route edges="top-approaching closed-lane remerging-lane left-exit"/>
    </vehicle>
    <vehicle id="L4-CV-41" type="L4-CV-" depart="110.29">
        <route edges="bottom-approaching closed-lane remerging-lane left-exit"/>
    </vehicle>
    <vehicle id="L4-CV-42" type="L4-CV-" depart="112.98">
        <route edges="bottom-approaching closed-lane remerging-lane left-exit"/>
    </vehicle>
    <vehicle id="L4-CV-44" type="L4-CV-" depart="118.36">
        <route edges="right-approaching closed-lane remerging-lane left-exit"/>
    </vehicle>
    <vehicle id="L4-CV-46" type="L4-CV-" depart="123.74">
        <route edges="bottom-approaching right-exit"/>
    </vehicle>
    <vehicle id="L4-CV-47" type="L4-CV-Left-" depart="126.43">
        <route edges="left-long-approaching preparation"/>
    </vehicle>
    <vehicle id="L4-CV-49" type="L4-CV-" depart="131.81">
        <route edges="top-approaching bottom-exit"/>
    </vehicle>
    <vehicle id="L4-CV-51" type="L4-CV-" depart="137.19">
        <route edges="left-long-approaching preparation left-short-approaching right-exit"/>
    </vehicle>
    <vehicle id="L4-CV-52" type="L4-CV-" depart="139.88">
        <route edges="right-approaching closed-lane remerging-lane left-exit"/>
    </vehicle>
    <vehicle id="L4-CV-53" type="L4-CV-" depart="142.57">
        <route edges="top-approaching bottom-exit"/>
    </vehicle>
    <vehicle id="L4-CV-54" type="L4-CV-" depart="145.26">
        <route edges="top-approaching bottom-exit"/>
    </vehicle>
    <vehicle id="L4-CV-55" type="L4-CV-" depart="147.95">
        <route edges="top-approaching bottom-exit"/>
    </vehicle>
    <vehicle id="L4-CV-57" type="L4-CV-" depart="153.33">
        <route edges="top-approaching right-exit"/>
    </vehicle>
    <vehicle id="L4-CV-58" type="L4-CV-" depart="156.02">
        <route edges="bottom-approaching top-exit"/>
    </vehicle>
    <vehicle id="L4-CV-59" type="L4-CV-Right-" depart="158.71">
        <route edges="left-long-approaching preparation left-short-approaching bottom-exit"/>
    </vehicle>
    <vehicle id="L4-CV-61" type="L4-CV-Right-" depart="164.09">
        <route edges="left-long-approaching preparation left-short-approaching bottom-exit"/>
    </vehicle>
    <vehicle id="L4-CV-62" type="L4-CV-" depart="166.78">
        <route edges="bottom-approaching right-exit"/>
    </vehicle>
    <vehicle id="L4-CV-63" type="L4-CV-Right-" depart="169.47">
        <route edges="left-long-approaching preparation left-short-approaching bottom-exit"/>
    </vehicle>
    <vehicle id="L4-CV-64" type="L4-CV-" depart="172.16">
        <route edges="left-long-approaching preparation left-short-approaching right-exit"/>
    </vehicle>
    <vehicle id="L4-CV-65" type="L4-CV-" depart="174.85">
        <route edges="right-approaching closed-lane remerging-lane left-exit"/>
    </vehicle>
    <vehicle id="L4-CV-68" type="L4-CV-Right-" depart="182.92">
        <route edges="left-long-approaching preparation left-short-approaching bottom-exit"/>
    </vehicle>
    <vehicle id="L4-CV-70" type="L4-CV-" depart="188.30">
        <route edges="right-approaching bottom-exit"/>
    </vehicle>
    <vehicle id="L4-CV-72" type="L4-CV-" depart="193.68">
        <route edges="bottom-approaching top-exit"/>
    </vehicle>
    <vehicle id="L4-CV-74" type="L4-CV-" depart="199.06">
        <route edges="right-approaching bottom-exit"/>
    </vehicle>
    <vehicle id="L4-CV-75" type="L4-CV-" depart="201.75">
        <route edges="bottom-approaching right-exit"/>
    </vehicle>
    <vehicle id="L4-CV-77" type="L4-CV-" depart="207.13">
        <route edges="bottom-approaching right-exit"/>
    </vehicle>
    <vehicle id="L4-CV-78" type="L4-CV-" depart="209.82">
        <route edges="top-approaching right-exit"/>
    </vehicle>
    <vehicle id="L4-CV-80" type="L4-CV-" depart="215.20">
        <route edges="bottom-approaching closed-lane remerging-lane left-exit"/>
    </vehicle>
    <vehicle id="L4-CV-81" type="L4-CV-" depart="217.89">
        <route edges="right-approaching top-exit"/>
    </vehicle>
    <vehicle id="L4-CV-82" type="L4-CV-Left-" depart="220.58">
        <route edges="left-long-approaching preparation"/>
    </vehicle>
    <vehicle id="L4-CV-83" type="L4-CV-" depart="223.27">
        <route edges="top-approaching right-exit"/>
    </vehicle>
    <vehicle id="L4-CV-84" type="L4-CV-" depart="225.96">
        <route edges="right-approaching top-exit"/>
    </vehicle>
    <vehicle id="L4-CV-85" type="L4-CV-" depart="228.65">
        <route edges="top-approaching closed-lane remerging-lane left-exit"/>
    </vehicle>
    <vehicle id="L4-CV-86" type="L4-CV-" depart="231.34">
        <route edges="top-approaching bottom-exit"/>
    </vehicle>
    <vehicle id="L4-CV-87" type="L4-CV-Left-" depart="234.03">
        <route edges="left-long-approaching preparation"/>
    </vehicle>
    <vehicle id="L4-CV-88" type="L4-CV-" depart="236.72">
        <route edges="top-approaching closed-lane remerging-lane left-exit"/>
    </vehicle>
    <vehicle id="L4-CV-89" type="L4-CV-" depart="239.41">
        <route edges="left-long-approaching preparation left-short-approaching right-exit"/>
    </vehicle>
    <vehicle id="L4-CV-90" type="L4-CV-" depart="242.10">
        <route edges="top-approaching right-exit"/>
    </vehicle>
    <vehicle id="L4-CV-91" type="L4-CV-" depart="244.79">
        <route edges="top-approaching right-exit"/>
    </vehicle>
    <vehicle id="L4-CV-92" type="L4-CV-" depart="247.48">
        <route edges="top-approaching right-exit"/>
    </vehicle>
    <vehicle id="L4-CV-94" type="L4-CV-" depart="252.86">
        <route edges="left-long-approaching preparation left-short-approaching right-exit"/>
    </vehicle>
    <vehicle id="L4-CV-95" type="L4-CV-" depart="255.55">
        <route edges="top-approaching closed-lane remerging-lane left-exit"/>
    </vehicle>
    <vehicle id="L4-CV-96" type="L4-CV-" depart="258.24">
        <route edges="bottom-approaching right-exit"/>
    </vehicle>
    <vehicle id="L4-CV-98" type="L4-CV-" depart="263.62">
        <route edges="bottom-approaching top-exit"/>
    </vehicle>
    <vehicle id="L4-CV-100" type="L4-CV-" depart="269.00">
        <route edges="top-approaching closed-lane remerging-lane left-exit"/>
    </vehicle>
    <vehicle id="L4-CV-101" type="L4-CV-Left-" depart="271.69">
        <route edges="left-long-approaching preparation"/>
    </vehicle>
    <vehicle id="L4-CV-104" type="L4-CV-" depart="279.76">
        <route edges="right-approaching closed-lane remerging-lane left-exit"/>
    </vehicle>
    <vehicle id="L4-CV-105" type="L4-CV-" depart="282.45">
        <route edges="top-approaching right-exit"/>
    </vehicle>
    <vehicle id="L4-CV-106" type="L4-CV-" depart="285.14">
        <route edges="top-approaching closed-lane remerging-lane left-exit"/>
    </vehicle>
    <vehicle id="L4-CV-108" type="L4-CV-" depart="290.52">
        <route edges="left-long-approaching preparation left-short-approaching right-exit"/>
    </vehicle>
    <vehicle id="L4-CV-111" type="L4-CV-" depart="298.59">
        <route edges="bottom-approaching right-exit"/>
    </vehicle>
    <vehicle id="L4-CV-112" type="L4-CV-" depart="301.28">
        <route edges="right-approaching bottom-exit"/>
    </vehicle>
    <vehicle id="L4-CV-113" type="L4-CV-Left-" depart="303.97">
        <route edges="left-long-approaching preparation"/>
    </vehicle>
    <vehicle id="L4-CV-115" type="L4-CV-" depart="309.35">
        <route edges="bottom-approaching right-exit"/>
    </vehicle>
    <vehicle id="L4-CV-116" type="L4-CV-" depart="312.04">
        <route edges="top-approaching right-exit"/>
    </vehicle>
    <vehicle id="L4-CV-117" type="L4-CV-Right-" depart="314.73">
        <route edges="left-long-approaching preparation left-short-approaching bottom-exit"/>
    </vehicle>
    <vehicle id="L4-CV-119" type="L4-CV-" depart="320.11">
        <route edges="right-approaching closed-lane remerging-lane left-exit"/>
    </vehicle>
    <vehicle id="L4-CV-124" type="L4-CV-" depart="333.56">
        <route edges="right-approaching bottom-exit"/>
    </vehicle>
    <vehicle id="L4-CV-125" type="L4-CV-" depart="336.25">
        <route edges="right-approaching closed-lane remerging-lane left-exit"/>
    </vehicle>
    <vehicle id="L4-CV-126" type="L4-CV-" depart="338.94">
        <route edges="bottom-approaching closed-lane remerging-lane left-exit"/>
    </vehicle>
    <vehicle id="L4-CV-128" type="L4-CV-" depart="344.32">
        <route edges="top-approaching bottom-exit"/>
    </vehicle>
    <vehicle id="L4-CV-129" type="L4-CV-" depart="347.01">
        <route edges="bottom-approaching closed-lane remerging-lane left-exit"/>
    </vehicle>
    <vehicle id="L4-CV-130" type="L4-CV-" depart="349.70">
        <route edges="bottom-approaching right-exit"/>
    </vehicle>
    <vehicle id="L4-CV-133" type="L4-CV-" depart="357.77">
        <route edges="top-approaching right-exit"/>
    </vehicle>
    <vehicle id="L4-CV-134" type="L4-CV-Left-" depart="360.46">
        <route edges="left-long-approaching preparation"/>
    </vehicle>
    <vehicle id="L4-CV-135" type="L4-CV-" depart="363.15">
        <route edges="right-approaching closed-lane remerging-lane left-exit"/>
    </vehicle>
    <vehicle id="L4-CV-136" type="L4-CV-" depart="365.84">
        <route edges="right-approaching top-exit"/>
    </vehicle>
    <vehicle id="L4-CV-138" type="L4-CV-" depart="371.22">
        <route edges="bottom-approaching closed-lane remerging-lane left-exit"/>
    </vehicle>
    <vehicle id="L4-CV-139" type="L4-CV-Right-" depart="373.91">
        <route edges="left-long-approaching preparation left-short-approaching bottom-exit"/>
    </vehicle>
    <vehicle id="L4-CV-140" type="L4-CV-" depart="376.60">
        <route edges="top-approaching bottom-exit"/>
    </vehicle>
    <vehicle id="L4-CV-141" type="L4-CV-" depart="379.29">
        <route edges="top-approaching right-exit"/>
    </vehicle>
    <vehicle id="L4-CV-142" type="L4-CV-" depart="381.98">
        <route edges="right-approaching closed-lane remerging-lane left-exit"/>
    </vehicle>
    <vehicle id="L4-CV-143" type="L4-CV-" depart="384.67">
        <route edges="top-approaching right-exit"/>
    </vehicle>
    <vehicle id="L4-CV-145" type="L4-CV-" depart="390.05">
        <route edges="right-approaching top-exit"/>
    </vehicle>
    <vehicle id="L4-CV-147" type="L4-CV-" depart="395.43">
        <route edges="top-approaching right-exit"/>
    </vehicle>
    <vehicle id="L4-CV-148" type="L4-CV-" depart="398.12">
        <route edges="left-long-approaching preparation left-short-approaching right-exit"/>
    </vehicle>
    <vehicle id="L4-CV-149" type="L4-CV-Right-" depart="400.81">
        <route edges="left-long-approaching preparation left-short-approaching bottom-exit"/>
    </vehicle>
    <vehicle id="L4-CV-151" type="L4-CV-" depart="406.19">
        <route edges="top-approaching right-exit"/>
    </vehicle>
    <vehicle id="L4-CV-152" type="L4-CV-" depart="408.88">
        <route edges="top-approaching closed-lane remerging-lane left-exit"/>
    </vehicle>
    <vehicle id="L4-CV-153" type="L4-CV-" depart="411.57">
        <route edges="bottom-approaching right-exit"/>
    </vehicle>
    <vehicle id="L4-CV-155" type="L4-CV-" depart="416.95">
        <route edges="right-approaching bottom-exit"/>
    </vehicle>
    <vehicle id="L4-CV-156" type="L4-CV-Right-" depart="419.64">
        <route edges="left-long-approaching preparation left-short-approaching bottom-exit"/>
    </vehicle>
    <vehicle id="L4-CV-157" type="L4-CV-Left-" depart="422.33">
        <route edges="left-long-approaching preparation"/>
    </vehicle>
    <vehicle id="L4-CV-158" type="L4-CV-" depart="425.02">
        <route edges="left-long-approaching preparation left-short-approaching right-exit"/>
    </vehicle>
    <vehicle id="L4-CV-159" type="L4-CV-" depart="427.71">
        <route edges="right-approaching bottom-exit"/>
    </vehicle>
    <vehicle id="L4-CV-160" type="L4-CV-" depart="430.40">
        <route edges="right-approaching bottom-exit"/>
    </vehicle>
    <vehicle id="L4-CV-161" type="L4-CV-" depart="433.09">
        <route edges="bottom-approaching right-exit"/>
    </vehicle>
    <vehicle id="L4-CV-162" type="L4-CV-" depart="435.78">
        <route edges="bottom-approaching top-exit"/>
    </vehicle>
    <vehicle id="L4-CV-163" type="L4-CV-" depart="438.47">
        <route edges="left-long-approaching preparation left-short-approaching right-exit"/>
    </vehicle>
    <vehicle id="L4-CV-164" type="L4-CV-" depart="441.16">
        <route edges="top-approaching bottom-exit"/>
    </vehicle>
    <vehicle id="L4-CV-165" type="L4-CV-" depart="443.85">
        <route edges="top-approaching bottom-exit"/>
    </vehicle>
    <vehicle id="L4-CV-167" type="L4-CV-" depart="449.23">
        <route edges="top-approaching closed-lane remerging-lane left-exit"/>
    </vehicle>
    <vehicle id="L4-CV-168" type="L4-CV-" depart="451.92">
        <route edges="top-approaching right-exit"/>
    </vehicle>
    <vehicle id="L4-CV-169" type="L4-CV-Right-" depart="454.61">
        <route edges="left-long-approaching preparation left-short-approaching bottom-exit"/>
    </vehicle>
    <vehicle id="L4-CV-170" type="L4-CV-" depart="457.30">
        <route edges="bottom-approaching closed-lane remerging-lane left-exit"/>
    </vehicle>
    <vehicle id="L4-CV-172" type="L4-CV-" depart="462.68">
        <route edges="top-approaching closed-lane remerging-lane left-exit"/>
    </vehicle>
    <vehicle id="L4-CV-173" type="L4-CV-" depart="465.37">
        <route edges="right-approaching bottom-exit"/>
    </vehicle>
    <vehicle id="L4-CV-174" type="L4-CV-" depart="468.06">
        <route edges="bottom-approaching right-exit"/>
    </vehicle>
    <vehicle id="L4-CV-175" type="L4-CV-" depart="470.75">
        <route edges="top-approaching closed-lane remerging-lane left-exit"/>
    </vehicle>
    <vehicle id="L4-CV-178" type="L4-CV-" depart="478.82">
        <route edges="right-approaching closed-lane remerging-lane left-exit"/>
    </vehicle>
    <vehicle id="L4-CV-179" type="L4-CV-" depart="481.51">
        <route edges="right-approaching top-exit"/>
    </vehicle>
    <vehicle id="L4-CV-180" type="L4-CV-" depart="484.20">
        <route edges="top-approaching right-exit"/>
    </vehicle>
    <vehicle id="L4-CV-181" type="L4-CV-" depart="486.89">
        <route edges="right-approaching closed-lane remerging-lane left-exit"/>
    </vehicle>
    <vehicle id="L4-CV-182" type="L4-CV-" depart="489.58">
        <route edges="top-approaching closed-lane remerging-lane left-exit"/>
    </vehicle>
    <vehicle id="L4-CV-183" type="L4-CV-" depart="492.27">
        <route edges="top-approaching closed-lane remerging-lane left-exit"/>
    </vehicle>
    <vehicle id="L4-CV-185" type="L4-CV-" depart="497.65">
        <route edges="right-approaching closed-lane remerging-lane left-exit"/>
    </vehicle>
    <vehicle id="L4-CV-187" type="L4-CV-" depart="503.03">
        <route edges="left-long-approaching preparation left-short-approaching right-exit"/>
    </vehicle>
    <vehicle id="L4-CV-189" type="L4-CV-" depart="508.41">
        <route edges="left-long-approaching preparation left-short-approaching right-exit"/>
    </vehicle>
    <vehicle id="L4-CV-190" type="L4-CV-" depart="511.10">
        <route edges="right-approaching bottom-exit"/>
    </vehicle>
    <vehicle id="L4-CV-191" type="L4-CV-" depart="513.79">
        <route edges="bottom-approaching top-exit"/>
    </vehicle>
    <vehicle id="L4-CV-192" type="L4-CV-" depart="516.48">
        <route edges="bottom-approaching top-exit"/>
    </vehicle>
    <vehicle id="L4-CV-193" type="L4-CV-" depart="519.17">
        <route edges="top-approaching bottom-exit"/>
    </vehicle>
    <vehicle id="L4-CV-194" type="L4-CV-" depart="521.86">
        <route edges="right-approaching closed-lane remerging-lane left-exit"/>
    </vehicle>
    <vehicle id="L4-CV-195" type="L4-CV-" depart="524.55">
        <route edges="top-approaching bottom-exit"/>
    </vehicle>
    <vehicle id="L4-CV-197" type="L4-CV-" depart="529.93">
        <route edges="right-approaching bottom-exit"/>
    </vehicle>
    <vehicle id="L4-CV-198" type="L4-CV-Left-" depart="532.62">
        <route edges="left-long-approaching preparation"/>
    </vehicle>
    <vehicle id="L4-CV-201" type="L4-CV-" depart="540.69">
        <route edges="bottom-approaching top-exit"/>
    </vehicle>
    <vehicle id="L4-CV-202" type="L4-CV-Left-" depart="543.38">
        <route edges="left-long-approaching preparation"/>
    </vehicle>
    <vehicle id="L4-CV-203" type="L4-CV-Left-" depart="546.07">
        <route edges="left-long-approaching preparation"/>
    </vehicle>
    <vehicle id="L4-CV-204" type="L4-CV-" depart="548.76">
        <route edges="bottom-approaching top-exit"/>
    </vehicle>
    <vehicle id="L4-CV-205" type="L4-CV-" depart="551.45">
        <route edges="bottom-approaching right-exit"/>
    </vehicle>
    <vehicle id="L4-CV-206" type="L4-CV-Left-" depart="554.14">
        <route edges="left-long-approaching preparation"/>
    </vehicle>
    <vehicle id="L4-CV-207" type="L4-CV-" depart="556.83">
        <route edges="right-approaching top-exit"/>
    </vehicle>
    <vehicle id="L4-CV-208" type="L4-CV-" depart="559.52">
        <route edges="top-approaching closed-lane remerging-lane left-exit"/>
    </vehicle>
    <vehicle id="L4-CV-210" type="L4-CV-" depart="564.90">
        <route edges="right-approaching top-exit"/>
    </vehicle>
    <vehicle id="L4-CV-211" type="L4-CV-" depart="567.59">
        <route edges="right-approaching closed-lane remerging-lane left-exit"/>
    </vehicle>
    <vehicle id="L4-CV-213" type="L4-CV-" depart="572.97">
        <route edges="left-long-approaching preparation left-short-approaching right-exit"/>
    </vehicle>
    <vehicle id="L4-CV-215" type="L4-CV-" depart="578.35">
        <route edges="bottom-approaching closed-lane remerging-lane left-exit"/>
    </vehicle>
    <vehicle id="L4-CV-216" type="L4-CV-" depart="581.04">
        <route edges="right-approaching bottom-exit"/>
    </vehicle>
    <vehicle id="L4-CV-217" type="L4-CV-" depart="583.73">
        <route edges="left-long-approaching preparation left-short-approaching right-exit"/>
    </vehicle>
    <vehicle id="L4-CV-218" type="L4-CV-" depart="586.42">
        <route edges="left-long-approaching preparation left-short-approaching right-exit"/>
    </vehicle>
    <vehicle id="L4-CV-219" type="L4-CV-" depart="589.11">
        <route edges="right-approaching closed-lane remerging-lane left-exit"/>
    </vehicle>
    <vehicle id="L4-CV-220" type="L4-CV-" depart="591.80">
        <route edges="bottom-approaching right-exit"/>
    </vehicle>
    <vehicle id="L4-CV-221" type="L4-CV-" depart="594.49">
        <route edges="right-approaching bottom-exit"/>
    </vehicle>
    <vehicle id="L4-CV-222" type="L4-CV-" depart="597.18">
        <route edges="top-approaching right-exit"/>
    </vehicle>
    <vehicle id="L4-CV-224" type="L4-CV-" depart="602.56">
        <route edges="left-long-approaching preparation left-short-approaching right-exit"/>
    </vehicle>
    <vehicle id="L4-CV-225" type="L4-CV-" depart="605.25">
        <route edges="left-long-approaching preparation left-short-approaching right-exit"/>
    </vehicle>
    <vehicle id="L4-CV-226" type="L4-CV-" depart="607.94">
        <route edges="bottom-approaching closed-lane remerging-lane left-exit"/>
    </vehicle>
    <vehicle id="L4-CV-227" type="L4-CV-" depart="610.63">
        <route edges="right-approaching top-exit"/>
    </vehicle>
    <vehicle id="L4-CV-228" type="L4-CV-" depart="613.32">
        <route edges="right-approaching top-exit"/>
    </vehicle>
    <vehicle id="L4-CV-231" type="L4-CV-Right-" depart="621.39">
        <route edges="left-long-approaching preparation left-short-approaching bottom-exit"/>
    </vehicle>
    <vehicle id="L4-CV-232" type="L4-CV-" depart="624.08">
        <route edges="top-approaching right-exit"/>
    </vehicle>
    <vehicle id="L4-CV-234" type="L4-CV-" depart="629.46">
        <route edges="bottom-approaching right-exit"/>
    </vehicle>
    <vehicle id="L4-CV-235" type="L4-CV-" depart="632.15">
        <route edges="right-approaching bottom-exit"/>
    </vehicle>
    <vehicle id="L4-CV-238" type="L4-CV-" depart="640.22">
        <route edges="top-approaching bottom-exit"/>
    </vehicle>
    <vehicle id="L4-CV-239" type="L4-CV-" depart="642.91">
        <route edges="bottom-approaching right-exit"/>
    </vehicle>
    <vehicle id="L4-CV-241" type="L4-CV-Left-" depart="648.29">
        <route edges="left-long-approaching preparation"/>
    </vehicle>
    <vehicle id="L4-CV-242" type="L4-CV-" depart="650.98">
        <route edges="bottom-approaching closed-lane remerging-lane left-exit"/>
    </vehicle>
    <vehicle id="L4-CV-243" type="L4-CV-" depart="653.67">
        <route edges="top-approaching right-exit"/>
    </vehicle>
    <vehicle id="L4-CV-244" type="L4-CV-" depart="656.36">
        <route edges="left-long-approaching preparation left-short-approaching right-exit"/>
    </vehicle>
    <vehicle id="L4-CV-245" type="L4-CV-" depart="659.05">
        <route edges="left-long-approaching preparation left-short-approaching right-exit"/>
    </vehicle>
    <vehicle id="L4-CV-247" type="L4-CV-" depart="664.43">
        <route edges="bottom-approaching top-exit"/>
    </vehicle>
    <vehicle id="L4-CV-248" type="L4-CV-" depart="667.12">
        <route edges="top-approaching right-exit"/>
    </vehicle>
    <vehicle id="L4-CV-250" type="L4-CV-" depart="672.50">
        <route edges="left-long-approaching preparation left-short-approaching right-exit"/>
    </vehicle>
    <vehicle id="L4-CV-251" type="L4-CV-" depart="675.19">
        <route edges="right-approaching bottom-exit"/>
    </vehicle>
    <vehicle id="L4-CV-252" type="L4-CV-" depart="677.88">
        <route edges="top-approaching closed-lane remerging-lane left-exit"/>
    </vehicle>
    <vehicle id="L4-CV-253" type="L4-CV-" depart="680.57">
        <route edges="right-approaching bottom-exit"/>
    </vehicle>
    <vehicle id="L4-CV-254" type="L4-CV-" depart="683.26">
        <route edges="right-approaching bottom-exit"/>
    </vehicle>
    <vehicle id="L4-CV-257" type="L4-CV-" depart="691.33">
        <route edges="bottom-approaching closed-lane remerging-lane left-exit"/>
    </vehicle>
    <vehicle id="L4-CV-258" type="L4-CV-" depart="694.02">
        <route edges="top-approaching right-exit"/>
    </vehicle>
    <vehicle id="L4-CV-264" type="L4-CV-" depart="710.16">
        <route edges="right-approaching closed-lane remerging-lane left-exit"/>
    </vehicle>
    <vehicle id="L4-CV-266" type="L4-CV-" depart="715.54">
        <route edges="top-approaching bottom-exit"/>
    </vehicle>
    <vehicle id="L4-CV-267" type="L4-CV-" depart="718.23">
        <route edges="bottom-approaching top-exit"/>
    </vehicle>
    <vehicle id="L4-CV-269" type="L4-CV-" depart="723.61">
        <route edges="top-approaching right-exit"/>
    </vehicle>
    <vehicle id="L4-CV-270" type="L4-CV-" depart="726.30">
        <route edges="right-approaching top-exit"/>
    </vehicle>
    <vehicle id="L4-CV-271" type="L4-CV-" depart="728.99">
        <route edges="right-approaching closed-lane remerging-lane left-exit"/>
    </vehicle>
    <vehicle id="L4-CV-274" type="L4-CV-" depart="737.06">
        <route edges="left-long-approaching preparation left-short-approaching right-exit"/>
    </vehicle>
    <vehicle id="L4-CV-276" type="L4-CV-Left-" depart="742.44">
        <route edges="left-long-approaching preparation"/>
    </vehicle>
    <vehicle id="L4-CV-278" type="L4-CV-" depart="747.82">
        <route edges="right-approaching closed-lane remerging-lane left-exit"/>
    </vehicle>
    <vehicle id="L4-CV-279" type="L4-CV-" depart="750.51">
        <route edges="right-approaching bottom-exit"/>
    </vehicle>
    <vehicle id="L4-CV-281" type="L4-CV-" depart="755.89">
        <route edges="right-approaching closed-lane remerging-lane left-exit"/>
    </vehicle>
    <vehicle id="L4-CV-284" type="L4-CV-" depart="763.96">
        <route edges="left-long-approaching preparation left-short-approaching right-exit"/>
    </vehicle>
    <vehicle id="L4-CV-285" type="L4-CV-" depart="766.65">
        <route edges="right-approaching closed-lane remerging-lane left-exit"/>
    </vehicle>
    <vehicle id="L4-CV-286" type="L4-CV-" depart="769.34">
        <route edges="top-approaching bottom-exit"/>
    </vehicle>
    <vehicle id="L4-CV-287" type="L4-CV-Right-" depart="772.03">
        <route edges="left-long-approaching preparation left-short-approaching bottom-exit"/>
    </vehicle>
    <vehicle id="L4-CV-289" type="L4-CV-" depart="777.41">