<?xml version="1.0" ?><!-- generated on 03/31/21 20:46:21 by Eclipse SUMO duarouter Version 1.8.0
<configuration xmlns:xsi="http://www.w3.org/2001/XMLSchema-instance" xsi:noNamespaceSchemaLocation="http://sumo.dlr.de/xsd/duarouterConfiguration.xsd">

    <input>
        <net-file value="Roadworks/RoadworksIntersection.net.xml"/>
        <route-files value="trips.trips.xml"/>
    </input>

    <output>
        <output-file value="Roadworks/RealTMSPenetration2/Route-Files/L4-CV-Route.rou.xml"/>
        <alternatives-output value="Roadworks/RealTMSPenetration2/Route-Files/L4-CV-Route.rou.alt.xml"/>
    </output>

    <time>
        <begin value="0"/>
        <end value="3600"/>
    </time>

    <report>
        <no-warnings value="true"/>
        <ignore-errors value="true"/>
        <no-step-log value="true"/>
    </report>

</configuration>
--><routes xmlns:xsi="http://www.w3.org/2001/XMLSchema-instance" xsi:noNamespaceSchemaLocation="http://sumo.dlr.de/xsd/routes_file.xsd">
    <vehicle id="L4-CV-2" type="L4-CV-" depart="19.00">
        <route edges="right-approaching top-exit"/>
    </vehicle>
    <vehicle id="L4-CV-3" type="L4-CV-" depart="28.50">
        <route edges="bottom-approaching closed-lane remerging-lane left-exit"/>
    </vehicle>
    <vehicle id="L4-CV-4" type="L4-CV-" depart="38.00">
        <route edges="top-approaching right-exit"/>
    </vehicle>
    <vehicle id="L4-CV-5" type="L4-CV-" depart="47.50">
        <route edges="top-approaching bottom-exit"/>
    </vehicle>
    <vehicle id="L4-CV-6" type="L4-CV-Right-" depart="57.00">
        <route edges="left-long-approaching preparation left-short-approaching bottom-exit"/>
    </vehicle>
    <vehicle id="L4-CV-9" type="L4-CV-Left-" depart="85.50">
        <route edges="left-long-approaching preparation"/>
    </vehicle>
    <vehicle id="L4-CV-10" type="L4-CV-" depart="95.00">
        <route edges="top-approaching bottom-exit"/>
    </vehicle>
    <vehicle id="L4-CV-11" type="L4-CV-" depart="104.50">
        <route edges="top-approaching bottom-exit"/>
    </vehicle>
    <vehicle id="L4-CV-12" type="L4-CV-" depart="114.00">
        <route edges="right-approaching bottom-exit"/>
    </vehicle>
    <vehicle id="L4-CV-13" type="L4-CV-" depart="123.50">
        <route edges="bottom-approaching top-exit"/>
    </vehicle>
    <vehicle id="L4-CV-16" type="L4-CV-Left-" depart="152.00">
        <route edges="left-long-approaching preparation"/>
    </vehicle>
    <vehicle id="L4-CV-18" type="L4-CV-" depart="171.00">
        <route edges="bottom-approaching top-exit"/>
    </vehicle>
    <vehicle id="L4-CV-19" type="L4-CV-" depart="180.50">
        <route edges="right-approaching top-exit"/>
    </vehicle>
    <vehicle id="L4-CV-20" type="L4-CV-" depart="190.00">
        <route edges="top-approaching closed-lane remerging-lane left-exit"/>
    </vehicle>
    <vehicle id="L4-CV-21" type="L4-CV-Right-" depart="199.50">
        <route edges="left-long-approaching preparation left-short-approaching bottom-exit"/>
    </vehicle>
    <vehicle id="L4-CV-23" type="L4-CV-" depart="218.50">
        <route edges="left-long-approaching preparation left-short-approaching right-exit"/>
    </vehicle>
    <vehicle id="L4-CV-24" type="L4-CV-" depart="228.00">
        <route edges="bottom-approaching right-exit"/>
    </vehicle>
    <vehicle id="L4-CV-26" type="L4-CV-" depart="247.00">
        <route edges="top-approaching closed-lane remerging-lane left-exit"/>
    </vehicle>
    <vehicle id="L4-CV-28" type="L4-CV-" depart="266.00">
        <route edges="right-approaching bottom-exit"/>
    </vehicle>
    <vehicle id="L4-CV-29" type="L4-CV-" depart="275.50">
        <route edges="top-approaching bottom-exit"/>
    </vehicle>
    <vehicle id="L4-CV-30" type="L4-CV-" depart="285.00">
        <route edges="right-approaching top-exit"/>
    </vehicle>
    <vehicle id="L4-CV-31" type="L4-CV-" depart="294.50">
        <route edges="bottom-approaching top-exit"/>
    </vehicle>
    <vehicle id="L4-CV-32" type="L4-CV-" depart="304.00">
        <route edges="left-long-approaching preparation left-short-approaching right-exit"/>
    </vehicle>
    <vehicle id="L4-CV-34" type="L4-CV-" depart="323.00">
        <route edges="bottom-approaching top-exit"/>
    </vehicle>
    <vehicle id="L4-CV-35" type="L4-CV-" depart="332.50">
        <route edges="bottom-approaching top-exit"/>
    </vehicle>
    <vehicle id="L4-CV-38" type="L4-CV-" depart="361.00">
        <route edges="right-approaching top-exit"/>
    </vehicle>
    <vehicle id="L4-CV-39" type="L4-CV-" depart="370.50">
        <route edges="bottom-approaching right-exit"/>
    </vehicle>
    <vehicle id="L4-CV-41" type="L4-CV-" depart="389.50">
        <route edges="bottom-approaching top-exit"/>
    </vehicle>
    <vehicle id="L4-CV-42" type="L4-CV-" depart="399.00">
        <route edges="bottom-approaching closed-lane remerging-lane left-exit"/>
    </vehicle>
    <vehicle id="L4-CV-43" type="L4-CV-" depart="408.50">
        <route edges="right-approaching top-exit"/>
    </vehicle>
    <vehicle id="L4-CV-44" type="L4-CV-Left-" depart="418.00">
        <route edges="left-long-approaching preparation"/>
    </vehicle>
    <vehicle id="L4-CV-45" type="L4-CV-" depart="427.50">
        <route edges="right-approaching closed-lane remerging-lane left-exit"/>
    </vehicle>
    <vehicle id="L4-CV-46" type="L4-CV-Right-" depart="437.00">
        <route edges="left-long-approaching preparation left-short-approaching bottom-exit"/>
    </vehicle>
    <vehicle id="L4-CV-48" type="L4-CV-" depart="456.00">
        <route edges="right-approaching top-exit"/>
    </vehicle>
    <vehicle id="L4-CV-50" type="L4-CV-" depart="475.00">
        <route edges="top-approaching right-exit"/>
    </vehicle>
    <vehicle id="L4-CV-51" type="L4-CV-Right-" depart="484.50">
        <route edges="left-long-approaching preparation left-short-approaching bottom-exit"/>
    </vehicle>
    <vehicle id="L4-CV-52" type="L4-CV-" depart="494.00">
        <route edges="right-approaching top-exit"/>
    </vehicle>
    <vehicle id="L4-CV-54" type="L4-CV-" depart="513.00">
        <route edges="bottom-approaching top-exit"/>
    </vehicle>
    <vehicle id="L4-CV-55" type="L4-CV-" depart="522.50">
        <route edges="bottom-approaching closed-lane remerging-lane left-exit"/>
    </vehicle>
    <vehicle id="L4-CV-56" type="L4-CV-" depart="532.00">
        <route edges="top-approaching bottom-exit"/>
    </vehicle>
    <vehicle id="L4-CV-57" type="L4-CV-" depart="541.50">
        <route edges="right-approaching top-exit"/>
    </vehicle>
    <vehicle id="L4-CV-58" type="L4-CV-" depart="551.00">
        <route edges="right-approaching top-exit"/>
    </vehicle>
    <vehicle id="L4-CV-59" type="L4-CV-" depart="560.50">
        <route edges="bottom-approaching closed-lane remerging-lane left-exit"/>
    </vehicle>
    <vehicle id="L4-CV-60" type="L4-CV-" depart="570.00">
        <route edges="bottom-approaching top-exit"/>
    </vehicle>
    <vehicle id="L4-CV-63" type="L4-CV-" depart="598.50">
        <route edges="top-approaching closed-lane remerging-lane left-exit"/>
    </vehicle>
    <vehicle id="L4-CV-64" type="L4-CV-" depart="608.00">
        <route edges="left-long-approaching preparation left-short-approaching right-exit"/>
    </vehicle>
    <vehicle id="L4-CV-66" type="L4-CV-Right-" depart="627.00">
        <route edges="left-long-approaching preparation left-short-approaching bottom-exit"/>
    </vehicle>
    <vehicle id="L4-CV-67" type="L4-CV-Left-" depart="636.50">
        <route edges="left-long-approaching preparation"/>
    </vehicle>
    <vehicle id="L4-CV-68" type="L4-CV-" depart="646.00">
        <route edges="top-approaching right-exit"/>
    </vehicle>
    <vehicle id="L4-CV-70" type="L4-CV-" depart="665.00">
        <route edges="bottom-approaching closed-lane remerging-lane left-exit"/>
    </vehicle>
    <vehicle id="L4-CV-72" type="L4-CV-Left-" depart="684.00">
        <route edges="left-long-approaching preparation"/>
    </vehicle>
    <vehicle id="L4-CV-73" type="L4-CV-" depart="693.50">
        <route edges="top-approaching right-exit"/>
    </vehicle>
    <vehicle id="L4-CV-74" type="L4-CV-" depart="703.00">
        <route edges="right-approaching top-exit"/>
    </vehicle>
    <vehicle id="L4-CV-75" type="L4-CV-" depart="712.50">
        <route edges="left-long-approaching preparation left-short-approaching right-exit"/>
    </vehicle>
    <vehicle id="L4-CV-77" type="L4-CV-" depart="731.50">
        <route edges="top-approaching right-exit"/>
    </vehicle>
    <vehicle id="L4-CV-78" type="L4-CV-Left-" depart="741.00">
        <route edges="left-long-approaching preparation"/>
    </vehicle>
    <vehicle id="L4-CV-80" type="L4-CV-" depart="760.00">
        <route edges="bottom-approaching right-exit"/>
    </vehicle>
    <vehicle id="L4-CV-81" type="L4-CV-" depart="769.50">
        <route edges="left-long-approaching preparation left-short-approaching right-exit"/>
    </vehicle>
    <vehicle id="L4-CV-82" type="L4-CV-Left-" depart="779.00">
        <route edges="left-long-approaching preparation"/>
    </vehicle>
    <vehicle id="L4-CV-83" type="L4-CV-" depart="788.50">
        <route edges="right-approaching top-exit"/>
    </vehicle>
    <vehicle id="L4-CV-84" type="L4-CV-" depart="798.00">
        <route edges="left-long-approaching preparation left-short-approaching right-exit"/>
    </vehicle>
    <vehicle id="L4-CV-85" type="L4-CV-" depart="807.50">
        <route edges="right-approaching top-exit"/>
    </vehicle>
    <vehicle id="L4-CV-86" type="L4-CV-Left-" depart="817.00">
        <route edges="left-long-approaching preparation"/>
    </vehicle>
    <vehicle id="L4-CV-87" type="L4-CV-" depart="826.50">
        <route edges="top-approaching right-exit"/>
    </vehicle>
    <vehicle id="L4-CV-90" type="L4-CV-" depart="855.00">
        <route edges="bottom-approaching top-exit"/>
    </vehicle>
    <vehicle id="L4-CV-91" type="L4-CV-" depart="864.50">
        <route edges="top-approaching closed-lane remerging-lane left-exit"/>
    </vehicle>
    <vehicle id="L4-CV-93" type="L4-CV-" depart="883.50">
        <route edges="right-approaching bottom-exit"/>
    </vehicle>
    <vehicle id="L4-CV-94" type="L4-CV-" depart="893.00">
        <route edges="top-approaching right-exit"/>
    </vehicle>
    <vehicle id="L4-CV-95" type="L4-CV-" depart="902.50">
        <route edges="right-approaching closed-lane remerging-lane left-exit"/>
    </vehicle>
    <vehicle id="L4-CV-96" type="L4-CV-" depart="912.00">
        <route edges="right-approaching top-exit"/>
    </vehicle>
    <vehicle id="L4-CV-99" type="L4-CV-" depart="940.50">
        <route edges="left-long-approaching preparation left-short-approaching right-exit"/>
    </vehicle>
    <vehicle id="L4-CV-100" type="L4-CV-" depart="950.00">
        <route edges="bottom-approaching right-exit"/>
    </vehicle>
    <vehicle id="L4-CV-101" type="L4-CV-" depart="959.50">
        <route edges="right-approaching bottom-exit"/>
    </vehicle>
    <vehicle id="L4-CV-102" type="L4-CV-Right-" depart="969.00">
        <route edges="left-long-approaching preparation left-short-approaching bottom-exit"/>
    </vehicle>
    <vehicle id="L4-CV-104" type="L4-CV-Right-" depart="988.00">
        <route edges="left-long-approaching preparation left-short-approaching bottom-exit"/>
    </vehicle>
    <vehicle id="L4-CV-108" type="L4-CV-" depart="1026.00">
        <route edges="bottom-approaching top-exit"/>
    </vehicle>
    <vehicle id="L4-CV-109" type="L4-CV-" depart="1035.50">
        <route edges="bottom-approaching closed-lane remerging-lane left-exit"/>
    </vehicle>
    <vehicle id="L4-CV-111" type="L4-CV-" depart="1054.50">
        <route edges="bottom-approaching top-exit"/>
    </vehicle>
    <vehicle id="L4-CV-112" type="L4-CV-Right-" depart="1064.00">
        <route edges="left-long-approaching preparation left-short-approaching bottom-exit"/>
    </vehicle>
    <vehicle id="L4-CV-113" type="L4-CV-" depart="1073.50">
        <route edges="right-approaching bottom-exit"/>
    </vehicle>
    <vehicle id="L4-CV-114" type="L4-CV-" depart="1083.00">
        <route edges="right-approaching closed-lane remerging-lane left-exit"/>
    </vehicle>
    <vehicle id="L4-CV-115" type="L4-CV-" depart="1092.50">
        <route edges="right-approaching top-exit"/>
    </vehicle>
    <vehicle id="L4-CV-116" type="L4-CV-" depart="1102.00">
        <route edges="top-approaching closed-lane remerging-lane left-exit"/>
    </vehicle>
    <vehicle id="L4-CV-117" type="L4-CV-" depart="1111.50">
        <route edges="top-approaching right-exit"/>
    </vehicle>
    <vehicle id="L4-CV-118" type="L4-CV-Right-" depart="1121.00">
        <route edges="left-long-approaching preparation left-short-approaching bottom-exit"/>
    </vehicle>
    <vehicle id="L4-CV-121" type="L4-CV-" depart="1149.50">
        <route edges="right-approaching closed-lane remerging-lane left-exit"/>
    </vehicle>
    <vehicle id="L4-CV-122" type="L4-CV-" depart="1159.00">
        <route edges="top-approaching bottom-exit"/>
    </vehicle>
    <vehicle id="L4-CV-123" type="L4-CV-" depart="1168.50">
        <route edges="bottom-approaching right-exit"/>
    </vehicle>
    <vehicle id="L4-CV-124" type="L4-CV-" depart="1178.00">
        <route edges="right-approaching bottom-exit"/>
    </vehicle>
    <vehicle id="L4-CV-125" type="L4-CV-" depart="1187.50">
        <route edges="right-approaching top-exit"/>
    </vehicle>
    <vehicle id="L4-CV-127" type="L4-CV-" depart="1206.50">
        <route edges="bottom-approaching closed-lane remerging-lane left-exit"/>
    </vehicle>
    <vehicle id="L4-CV-128" type="L4-CV-" depart="1216.00">
        <route edges="top-approaching closed-lane remerging-lane left-exit"/>
    </vehicle>
    <vehicle id="L4-CV-130" type="L4-CV-" depart="1235.00">
        <route edges="right-approaching closed-lane remerging-lane left-exit"/>
    </vehicle>
    <vehicle id="L4-CV-131" type="L4-CV-" depart="1244.50">
        <route edges="top-approaching closed-lane remerging-lane left-exit"/>
    </vehicle>
    <vehicle id="L4-CV-133" type="L4-CV-" depart="1263.50">
        <route edges="top-approaching closed-lane remerging-lane left-exit"/>
    </vehicle>
    <vehicle id="L4-CV-135" type="L4-CV-" depart="1282.50">
        <route edges="bottom-approaching right-exit"/>
    </vehicle>
    <vehicle id="L4-CV-138" type="L4-CV-" depart="1311.00">
        <route edges="bottom-approaching right-exit"/>
    </vehicle>
    <vehicle id="L4-CV-139" type="L4-CV-Left-" depart="1320.50">
        <route edges="left-long-approaching preparation"/>
    </vehicle>
    <vehicle id="L4-CV-140" type="L4-CV-" depart="1330.00">
        <route edges="top-approaching bottom-exit"/>
    </vehicle>
    <vehicle id="L4-CV-141" type="L4-CV-Right-" depart="1339.50">
        <route edges="left-long-approaching preparation left-short-approaching bottom-exit"/>
    </vehicle>
    <vehicle id="L4-CV-142" type="L4-CV-" depart="1349.00">
        <route edges="top-approaching closed-lane remerging-lane left-exit"/>
    </vehicle>
    <vehicle id="L4-CV-143" type="L4-CV-" depart="1358.50">
        <route edges="right-approaching closed-lane remerging-lane left-exit"/>
    </vehicle>
    <vehicle id="L4-CV-145" type="L4-CV-" depart="1377.50">
        <route edges="right-approaching bottom-exit"/>
    </vehicle>
    <vehicle id="L4-CV-146" type="L4-CV-" depart="1387.00">
        <route edges="top-approaching closed-lane remerging-lane left-exit"/>
    </vehicle>
    <vehicle id="L4-CV-147" type="L4-CV-" depart="1396.50">
        <route edges="right-approaching closed-lane remerging-lane left-exit"/>
    </vehicle>
    <vehicle id="L4-CV-148" type="L4-CV-" depart="1406.00">
        <route edges="left-long-approaching preparation left-short-approaching right-exit"/>
    </vehicle>
    <vehicle id="L4-CV-151" type="L4-CV-" depart="1434.50">
        <route edges="bottom-approaching closed-lane remerging-lane left-exit"/>
    </vehicle>
    <vehicle id="L4-CV-152" type="L4-CV-Left-" depart="1444.00">
        <route edges="left-long-approaching preparation"/>
    </vehicle>
    <vehicle id="L4-CV-153" type="L4-CV-" depart="1453.50">
        <route edges="top-approaching right-exit"/>
    </vehicle>
    <vehicle id="L4-CV-154" type="L4-CV-" depart="1463.00">
        <route edges="bottom-approaching top-exit"/>
    </vehicle>
    <vehicle id="L4-CV-155" type="L4-CV-" depart="1472.50">
        <route edges="left-long-approaching preparation left-short-approaching right-exit"/>
    </vehicle>
    <vehicle id="L4-CV-157" type="L4-CV-Left-" depart="1491.50">
        <route edges="left-long-approaching preparation"/>
    </vehicle>
    <vehicle id="L4-CV-159" type="L4-CV-" depart="1510.50">
        <route edges="top-approaching bottom-exit"/>
    </vehicle>
    <vehicle id="L4-CV-160" type="L4-CV-Left-" depart="1520.00">
        <route edges="left-long-approaching preparation"/>
    </vehicle>
    <vehicle id="L4-CV-161" type="L4-CV-" depart="1529.50">
        <route edges="bottom-approaching top-exit"/>
    </vehicle>
    <vehicle id="L4-CV-162" type="L4-CV-" depart="1539.00">
        <route edges="right-approaching closed-lane remerging-lane left-exit"/>
    </vehicle>
    <vehicle id="L4-CV-163" type="L4-CV-Left-" depart="1548.50">
        <route edges="left-long-approaching preparation"/>
    </vehicle>
    <vehicle id="L4-CV-164" type="L4-CV-" depart="1558.00">
        <route edges="top-approaching bottom-exit"/>
    </vehicle>
    <vehicle id="L4-CV-165" type="L4-CV-" depart="1567.50">
        <route edges="left-long-approaching preparation left-short-approaching right-exit"/>
    </vehicle>
    <vehicle id="L4-CV-167" type="L4-CV-" depart="1586.50">
        <route edges="bottom-approaching right-exit"/>
    </vehicle>
    <vehicle id="L4-CV-168" type="L4-CV-" depart="1596.00">
        <route edges="top-approaching bottom-exit"/>
    </vehicle>
    <vehicle id="L4-CV-169" type="L4-CV-" depart="1605.50">
        <route edges="bottom-approaching top-exit"/>
    </vehicle>
    <vehicle id="L4-CV-170" type="L4-CV-" depart="1615.00">
        <route edges="top-approaching right-exit"/>
    </vehicle>
    <vehicle id="L4-CV-171" type="L4-CV-" depart="1624.50">
        <route edges="bottom-approaching right-exit"/>
    </vehicle>
    <vehicle id="L4-CV-173" type="L4-CV-" depart="1643.50">
        <route edges="right-approaching bottom-exit"/>
    </vehicle>
    <vehicle id="L4-CV-174" type="L4-CV-" depart="1653.00">
        <route edges="top-approaching bottom-exit"/>
    </vehicle>
    <vehicle id="L4-CV-175" type="L4-CV-" depart="1662.50">
        <route edges="right-approaching top-exit"/>
    </vehicle>
    <vehicle id="L4-CV-176" type="L4-CV-" depart="1672.00">
        <route edges="right-approaching bottom-exit"/>
    </vehicle>
    <vehicle id="L4-CV-177" type="L4-CV-Left-" depart="1681.50">
        <route edges="left-long-approaching preparation"/>
    </vehicle>
    <vehicle id="L4-CV-178" type="L4-CV-" depart="1691.00">
        <route edges="bottom-approaching right-exit"/>
    </vehicle>
    <vehicle id="L4-CV-179" type="L4-CV-Right-" depart="1700.50">
        <route edges="left-long-approaching preparation left-short-approaching bottom-exit"/>
    </vehicle>
    <vehicle id="L4-CV-180" type="L4-CV-" depart="1710.00">
        <route edges="right-approaching bottom-exit"/>
    </vehicle>
    <vehicle id="L4-CV-181" type="L4-CV-" depart="1719.50">
        <route edges="bottom-approaching closed-lane remerging-lane left-exit"/>
    </vehicle>
    <vehicle id="L4-CV-184" type="L4-CV-" depart="1748.00">
        <route edges="top-approaching bottom-exit"/>
    </vehicle>
    <vehicle id="L4-CV-186" type="L4-CV-" depart="1767.00">
        <route edges="right-approaching closed-lane remerging-lane left-exit"/>
    </vehicle>
    <vehicle id="L4-CV-187" type="L4-CV-" depart="1776.50">
        <route edges="top-approaching closed-lane remerging-lane left-exit"/>
    </vehicle>
    <vehicle id="L4-CV-188" type="L4-CV-" depart="1786.00">
        <route edges="bottom-approaching right-exit"/>
    </vehicle>
    <vehicle id="L4-CV-189" type="L4-CV-" depart="1795.50">
        <route edges="bottom-approaching right-exit"/>
    </vehicle>
    <vehicle id="L4-CV-190" type="L4-CV-" depart="1805.00">
        <route edges="right-approaching top-exit"/>
    </vehicle>
    <vehicle id="L4-CV-192" type="L4-CV-" depart="1824.00">
        <route edges="left-long-approaching preparation left-short-approaching right-exit"/>
    </vehicle>
    <vehicle id="L4-CV-193" type="L4-CV-" depart="1833.50">
        <route edges="left-long-approaching preparation left-short-approaching right-exit"/>
    </vehicle>
    <vehicle id="L4-CV-194" type="L4-CV-" depart="1843.00">
        <route edges="right-approaching bottom-exit"/>
    </vehicle>
    <vehicle id="L4-CV-195" type="L4-CV-" depart="1852.50">
        <route edges="bottom-approaching closed-lane remerging-lane left-exit"/>
    </vehicle>
    <vehicle id="L4-CV-196" type="L4-CV-" depart="1862.00">
        <route edges="right-approaching bottom-exit"/>
    </vehicle>
    <vehicle id="L4-CV-198" type="L4-CV-" depart="1881.00">
        <route edges="bottom-approaching right-exit"/>
    </vehicle>
    <vehicle id="L4-CV-200" type="L4-CV-" depart="1900.00">
        <route edges="right-approaching bottom-exit"/>
    </vehicle>
    <vehicle id="L4-CV-201" type="L4-CV-" depart="1909.50">
        <route edges="top-approaching closed-lane remerging-lane left-exit"/>
    </vehicle>
    <vehicle id="L4-CV-202" type="L4-CV-Left-" depart="1919.00">
        <route edges="left-long-approaching preparation"/>
    </vehicle>
    <vehicle id="L4-CV-203" type="L4-CV-" depart="1928.50">
        <route edges="bottom-approaching right-exit"/>
    </vehicle>
    <vehicle id="L4-CV-205" type="L4-CV-" depart="1947.50">
        <route edges="top-approaching right-exit"/>
    </vehicle>
    <vehicle id="L4-CV-207" type="L4-CV-" depart="1966.50">
        <route edges="top-approaching right-exit"/>
    </vehicle>
    <vehicle id="L4-CV-208" type="L4-CV-" depart="1976.00">
        <route edges="top-approaching bottom-exit"/>
    </vehicle>
    <vehicle id="L4-CV-209" type="L4-CV-" depart="1985.50">
        <route edges="right-approaching closed-lane remerging-lane left-exit"/>
    </vehicle>
    <vehicle id="L4-CV-210" type="L4-CV-" depart="1995.00">
        <route edges="bottom-approaching closed-lane remerging-lane left-exit"/>
    </vehicle>
    <vehicle id="L4-CV-211" type="L4-CV-" depart="2004.50">
        <route edges="right-approaching closed-lane remerging-lane left-exit"/>
    </vehicle>
    <vehicle id="L4-CV-212" type="L4-CV-Right-" depart="2014.00">
        <route edges="left-long-approaching preparation left-short-approaching bottom-exit"/>
    </vehicle>
    <vehicle id="L4-CV-213" type="L4-CV-" depart="2023.50">
        <route edges="top-approaching right-exit"/>
    </vehicle>
    <vehicle id="L4-CV-214" type="L4-CV-" depart="2033.00">
        <route edges="top-approaching closed-lane remerging-lane left-exit"/>
    </vehicle>
    <vehicle id="L4-CV-215" type="L4-CV-" depart="2042.50">
        <route edges="top-approaching right-exit"/>
    </vehicle>
    <vehicle id="L4-CV-217" type="L4-CV-" depart="2061.50">
        <route edges="right-approaching closed-lane remerging-lane left-exit"/>
    </vehicle>
    <vehicle id="L4-CV-220" type="L4-CV-" depart="2090.00">
        <route edges="top-approaching closed-lane remerging-lane left-exit"/>
    </vehicle>
    <vehicle id="L4-CV-221" type="L4-CV-" depart="2099.50">
        <route edges="top-approaching bottom-exit"/>
    </vehicle>
    <vehicle id="L4-CV-222" type="L4-CV-Left-" depart="2109.00">
        <route edges="left-long-approaching preparation"/>
    </vehicle>
    <vehicle id="L4-CV-223" type="L4-CV-" depart="2118.50">
        <route edges="right-approaching closed-lane remerging-lane left-exit"/>
    </vehicle>
    <vehicle id="L4-CV-224" type="L4-CV-Right-" depart="2128.00">
        <route edges="left-long-approaching preparation left-short-approaching bottom-exit"/>
    </vehicle>
    <vehicle id="L4-CV-227" type="L4-CV-" depart="2156.50">
        <route edges="top-approaching bottom-exit"/>
    </vehicle>
    <vehicle id="L4-CV-229" type="L4-CV-" depart="2175.50">
        <route edges="bottom-approaching closed-lane remerging-lane left-exit"/>
    </vehicle>
    <vehicle id="L4-CV-230" type="L4-CV-" depart="2185.00">
        <route edges="bottom-approaching closed-lane remerging-lane left-exit"/>
    </vehicle>
    <vehicle id="L4-CV-231" type="L4-CV-" depart="2194.50">
        <route edges="bottom-approaching top-exit"/>
    </vehicle>
    <vehicle id="L4-CV-232" type="L4-CV-Left-" depart="2204.00">
        <route edges="left-long-approaching preparation"/>
    </vehicle>
    <vehicle id="L4-CV-234" type="L4-CV-Left-" depart="2223.00">
        <route edges="left-long-approaching preparation"/>
    </vehicle>
    <vehicle id="L4-CV-235" type="L4-CV-" depart="2232.50">
        <route edges="bottom-approaching right-exit"/>
    </vehicle>
    <vehicle id="L4-CV-236" type="L4-CV-" depart="2242.00">
        <route edges="left-long-approaching preparation left-short-approaching right-exit"/>
    </vehicle>
    <vehicle id="L4-CV-237" type="L4-CV-" depart="2251.50">
        <route edges="right-approaching bottom-exit"/>
    </vehicle>
    <vehicle id="L4-CV-240" type="L4-CV-Left-" depart="2280.00">
        <route edges="left-long-approaching preparation"/>
    </vehicle>
    <vehicle id="L4-CV-245" type="L4-CV-" depart="2327.50">
        <route edges="right-approaching top-exit"/>
    </vehicle>
    <vehicle id="L4-CV-246" type="L4-CV-" depart="2337.00">
        <route edges="right-approaching closed-lane remerging-lane left-exit"/>
    </vehicle>
    <vehicle id="L4-CV-247" type="L4-CV-" depart="2346.50">
        <route edges="top-approaching bottom-exit"/>
    </vehicle>
    <vehicle id="L4-CV-248" type="L4-CV-" depart="2356.00">
        <route edges="bottom-approaching top-exit"/>
    </vehicle>
    <vehicle id="L4-CV-249" type="L4-CV-Right-" depart="2365.50">
        <route edges="left-long-approaching preparation left-short-approaching bottom-exit"/>
    </vehicle>
    <vehicle id="L4-CV-250" type="L4-CV-" depart="2375.00">
        <route edges="right-approaching top-exit"/>
    </vehicle>
    <vehicle id="L4-CV-251" type="L4-CV-" depart="2384.50">
        <route edges="right-approaching closed-lane remerging-lane left-exit"/>
    </vehicle>
    <vehicle id="L4-CV-253" type="L4-CV-" depart="2403.50">
        <route edges="top-approaching closed-lane remerging-lane left-exit"/>
    </vehicle>
    <vehicle id="L4-CV-254" type="L4-CV-" depart="2413.00">
        <route edges="top-approaching bottom-exit"/>
    </vehicle>
    <vehicle id="L4-CV-256" type="L4-CV-Right-" depart="2432.00">
        <route edges="left-long-approaching preparation left-short-approaching bottom-exit"/>
    </vehicle>
    <vehicle id="L4-CV-258" type="L4-CV-Right-" depart="2451.00">
        <route edges="left-long-approaching preparation left-short-approaching bottom-exit"/>
    </vehicle>
    <vehicle id="L4-CV-259" type="L4-CV-" depart="2460.50">
        <route edges="bottom-approaching top-exit"/>
    </vehicle>
    <vehicle id="L4-CV-260" type="L4-CV-" depart="2470.00">
        <route edges="bottom-approaching right-exit"/>
    </vehicle>
    <vehicle id="L4-CV-261" type="L4-CV-" depart="2479.50">
        <route edges="left-long-approaching preparation left-short-approaching right-exit"/>
    </vehicle>
    <vehicle id="L4-CV-262" type="L4-CV-" depart="2489.00">
        <route edges="bottom-approaching closed-lane remerging-lane left-exit"/>
    </vehicle>
    <vehicle id="L4-CV-263" type="L4-CV-" depart="2498.50">
        <route edges="bottom-approaching right-exit"/>
    </vehicle>
    <vehicle id="L4-CV-264" type="L4-CV-" depart="2508.00">
        <route edges="top-approaching right-exit"/>
    </vehicle>
    <vehicle id="L4-CV-265" type="L4-CV-" depart="2517.50">
        <route edges="top-approaching bottom-exit"/>
    </vehicle>
    <vehicle id="L4-CV-266" type="L4-CV-" depart="2527.00">
        <route edges="bottom-approaching right-exit"/>
    </vehicle>
    <vehicle id="L4-CV-267" type="L4-CV-" depart="2536.50">
        <route edges="left-long-approaching preparation left-short-approaching right-exit"/>
    </vehicle>
    <vehicle id="L4-CV-268" type="L4-CV-" depart="2546.00">
        <route edges="left-long-approaching preparation left-short-approaching right-exit"/>
    </vehicle>
    <vehicle id="L4-CV-269" type="L4-CV-" depart="2555.50">
        <route edges="right-approaching top-exit"/>
    </vehicle>
    <vehicle id="L4-CV-271" type="L4-CV-" depart="2574.50">
        <route edges="top-approaching bottom-exit"/>
    </vehicle>
    <vehicle id="L4-CV-272" type="L4-CV-" depart="2584.00">
        <route edges="bottom-approaching closed-lane remerging-lane left-exit"/>
    </vehicle>
    <vehicle id="L4-CV-273" type="L4-CV-" depart="2593.50">
        <route edges="bottom-approaching top-exit"/>
    </vehicle>
    <vehicle id="L4-CV-274" type="L4-CV-" depart="2603.00">
        <route edges="top-approaching closed-lane remerging-lane left-exit"/>
    </vehicle>
    <vehicle id="L4-CV-277" type="L4-CV-" depart="2631.50">
        <route edges="left-long-approaching preparation left-short-approaching right-exit"/>
    </vehicle>
    <vehicle id="L4-CV-279" type="L4-CV-" depart="2650.50">
        <route edges="right-approaching bottom-exit"/>
    </vehicle>
    <vehicle id="L4-CV-280" type="L4-CV-" depart="2660.00">
        <route edges="bottom-approaching closed-lane remerging-lane left-exit"/>
    </vehicle>
    <vehicle id="L4-CV-281" type="L4-CV-Right-" depart="2669.50">