<?xml version="1.0" ?><!-- generated on 03/26/21 01:13:19 by Eclipse SUMO duarouter Version 1.8.0
<configuration xmlns:xsi="http://www.w3.org/2001/XMLSchema-instance" xsi:noNamespaceSchemaLocation="http://sumo.dlr.de/xsd/duarouterConfiguration.xsd">

    <input>
        <net-file value="Roadworks/RoadworksIntersection.net.xml"/>
        <route-files value="trips.trips.xml"/>
    </input>

    <output>
        <output-file value="Roadworks/RealTMSPenetration2/Route-Files/L4-CV-Route.rou.xml"/>
        <alternatives-output value="Roadworks/RealTMSPenetration2/Route-Files/L4-CV-Route.rou.alt.xml"/>
    </output>

    <time>
        <begin value="0"/>
        <end value="3600"/>
    </time>

    <report>
        <no-warnings value="true"/>
        <ignore-errors value="true"/>
        <no-step-log value="true"/>
    </report>

</configuration>
--><routes xmlns:xsi="http://www.w3.org/2001/XMLSchema-instance" xsi:noNamespaceSchemaLocation="http://sumo.dlr.de/xsd/routes_file.xsd">
    <vehicle id="L4-CV-1" type="L4-CV-" depart="2.32">
        <route edges="bottom-approaching top-exit"/>
    </vehicle>
    <vehicle id="L4-CV-3" type="L4-CV-" depart="6.96">
        <route edges="top-approaching bottom-exit"/>
    </vehicle>
    <vehicle id="L4-CV-5" type="L4-CV-" depart="11.60">
        <route edges="bottom-approaching closed-lane remerging-lane left-exit"/>
    </vehicle>
    <vehicle id="L4-CV-6" type="L4-CV-" depart="13.92">
        <route edges="right-approaching closed-lane remerging-lane left-exit"/>
    </vehicle>
    <vehicle id="L4-CV-7" type="L4-CV-" depart="16.24">
        <route edges="right-approaching bottom-exit"/>
    </vehicle>
    <vehicle id="L4-CV-9" type="L4-CV-" depart="20.88">
        <route edges="right-approaching top-exit"/>
    </vehicle>
    <vehicle id="L4-CV-10" type="L4-CV-" depart="23.20">
        <route edges="right-approaching top-exit"/>
    </vehicle>
    <vehicle id="L4-CV-11" type="L4-CV-" depart="25.52">
        <route edges="left-long-approaching preparation left-short-approaching right-exit"/>
    </vehicle>
    <vehicle id="L4-CV-12" type="L4-CV-" depart="27.84">
        <route edges="bottom-approaching closed-lane remerging-lane left-exit"/>
    </vehicle>
    <vehicle id="L4-CV-14" type="L4-CV-Right-" depart="32.48">
        <route edges="left-long-approaching preparation left-short-approaching bottom-exit"/>
    </vehicle>
    <vehicle id="L4-CV-15" type="L4-CV-Right-" depart="34.80">
        <route edges="left-long-approaching preparation left-short-approaching bottom-exit"/>
    </vehicle>
    <vehicle id="L4-CV-16" type="L4-CV-Left-" depart="37.12">
        <route edges="left-long-approaching preparation"/>
    </vehicle>
    <vehicle id="L4-CV-17" type="L4-CV-" depart="39.44">
        <route edges="bottom-approaching top-exit"/>
    </vehicle>
    <vehicle id="L4-CV-18" type="L4-CV-" depart="41.76">
        <route edges="top-approaching bottom-exit"/>
    </vehicle>
    <vehicle id="L4-CV-20" type="L4-CV-" depart="46.40">
        <route edges="bottom-approaching closed-lane remerging-lane left-exit"/>
    </vehicle>
    <vehicle id="L4-CV-21" type="L4-CV-" depart="48.72">
        <route edges="top-approaching bottom-exit"/>
    </vehicle>
    <vehicle id="L4-CV-22" type="L4-CV-" depart="51.04">
        <route edges="right-approaching bottom-exit"/>
    </vehicle>
    <vehicle id="L4-CV-23" type="L4-CV-" depart="53.36">
        <route edges="right-approaching top-exit"/>
    </vehicle>
    <vehicle id="L4-CV-25" type="L4-CV-" depart="58.00">
        <route edges="bottom-approaching right-exit"/>
    </vehicle>
    <vehicle id="L4-CV-27" type="L4-CV-Left-" depart="62.64">
        <route edges="left-long-approaching preparation"/>
    </vehicle>
    <vehicle id="L4-CV-29" type="L4-CV-" depart="67.28">
        <route edges="right-approaching bottom-exit"/>
    </vehicle>
    <vehicle id="L4-CV-30" type="L4-CV-" depart="69.60">
        <route edges="right-approaching bottom-exit"/>
    </vehicle>
    <vehicle id="L4-CV-31" type="L4-CV-" depart="71.92">
        <route edges="right-approaching top-exit"/>
    </vehicle>
    <vehicle id="L4-CV-32" type="L4-CV-" depart="74.24">
        <route edges="bottom-approaching right-exit"/>
    </vehicle>
    <vehicle id="L4-CV-33" type="L4-CV-" depart="76.56">
        <route edges="right-approaching bottom-exit"/>
    </vehicle>
    <vehicle id="L4-CV-34" type="L4-CV-Left-" depart="78.88">
        <route edges="left-long-approaching preparation"/>
    </vehicle>
    <vehicle id="L4-CV-35" type="L4-CV-" depart="81.20">
        <route edges="top-approaching bottom-exit"/>
    </vehicle>
    <vehicle id="L4-CV-36" type="L4-CV-" depart="83.52">
        <route edges="right-approaching top-exit"/>
    </vehicle>
    <vehicle id="L4-CV-37" type="L4-CV-" depart="85.84">
        <route edges="bottom-approaching right-exit"/>
    </vehicle>
    <vehicle id="L4-CV-38" type="L4-CV-" depart="88.16">
        <route edges="bottom-approaching closed-lane remerging-lane left-exit"/>
    </vehicle>
    <vehicle id="L4-CV-40" type="L4-CV-" depart="92.80">
        <route edges="top-approaching bottom-exit"/>
    </vehicle>
    <vehicle id="L4-CV-41" type="L4-CV-Left-" depart="95.12">
        <route edges="left-long-approaching preparation"/>
    </vehicle>
    <vehicle id="L4-CV-42" type="L4-CV-" depart="97.44">
        <route edges="right-approaching closed-lane remerging-lane left-exit"/>
    </vehicle>
    <vehicle id="L4-CV-43" type="L4-CV-Left-" depart="99.76">
        <route edges="left-long-approaching preparation"/>
    </vehicle>
    <vehicle id="L4-CV-44" type="L4-CV-" depart="102.08">
        <route edges="right-approaching bottom-exit"/>
    </vehicle>
    <vehicle id="L4-CV-45" type="L4-CV-" depart="104.40">
        <route edges="top-approaching closed-lane remerging-lane left-exit"/>
    </vehicle>
    <vehicle id="L4-CV-46" type="L4-CV-Right-" depart="106.72">
        <route edges="left-long-approaching preparation left-short-approaching bottom-exit"/>
    </vehicle>
    <vehicle id="L4-CV-48" type="L4-CV-" depart="111.36">
        <route edges="bottom-approaching right-exit"/>
    </vehicle>
    <vehicle id="L4-CV-49" type="L4-CV-" depart="113.68">
        <route edges="bottom-approaching top-exit"/>
    </vehicle>
    <vehicle id="L4-CV-50" type="L4-CV-" depart="116.00">
        <route edges="bottom-approaching top-exit"/>
    </vehicle>
    <vehicle id="L4-CV-52" type="L4-CV-" depart="120.64">
        <route edges="right-approaching closed-lane remerging-lane left-exit"/>
    </vehicle>
    <vehicle id="L4-CV-53" type="L4-CV-" depart="122.96">
        <route edges="right-approaching closed-lane remerging-lane left-exit"/>
    </vehicle>
    <vehicle id="L4-CV-54" type="L4-CV-" depart="125.28">
        <route edges="bottom-approaching top-exit"/>
    </vehicle>
    <vehicle id="L4-CV-56" type="L4-CV-" depart="129.92">
        <route edges="top-approaching closed-lane remerging-lane left-exit"/>
    </vehicle>
    <vehicle id="L4-CV-57" type="L4-CV-" depart="132.24">
        <route edges="right-approaching bottom-exit"/>
    </vehicle>
    <vehicle id="L4-CV-58" type="L4-CV-" depart="134.56">
        <route edges="top-approaching closed-lane remerging-lane left-exit"/>
    </vehicle>
    <vehicle id="L4-CV-59" type="L4-CV-" depart="136.88">
        <route edges="bottom-approaching top-exit"/>
    </vehicle>
    <vehicle id="L4-CV-60" type="L4-CV-" depart="139.20">
        <route edges="bottom-approaching top-exit"/>
    </vehicle>
    <vehicle id="L4-CV-61" type="L4-CV-" depart="141.52">
        <route edges="top-approaching right-exit"/>
    </vehicle>
    <vehicle id="L4-CV-63" type="L4-CV-" depart="146.16">
        <route edges="bottom-approaching closed-lane remerging-lane left-exit"/>
    </vehicle>
    <vehicle id="L4-CV-64" type="L4-CV-" depart="148.48">
        <route edges="right-approaching top-exit"/>
    </vehicle>
    <vehicle id="L4-CV-65" type="L4-CV-Right-" depart="150.80">
        <route edges="left-long-approaching preparation left-short-approaching bottom-exit"/>
    </vehicle>
    <vehicle id="L4-CV-66" type="L4-CV-" depart="153.12">
        <route edges="right-approaching bottom-exit"/>
    </vehicle>
    <vehicle id="L4-CV-67" type="L4-CV-" depart="155.44">
        <route edges="bottom-approaching right-exit"/>
    </vehicle>
    <vehicle id="L4-CV-68" type="L4-CV-" depart="157.76">
        <route edges="right-approaching bottom-exit"/>
    </vehicle>
    <vehicle id="L4-CV-69" type="L4-CV-" depart="160.08">
        <route edges="left-long-approaching preparation left-short-approaching right-exit"/>
    </vehicle>
    <vehicle id="L4-CV-70" type="L4-CV-" depart="162.40">
        <route edges="top-approaching closed-lane remerging-lane left-exit"/>
    </vehicle>
    <vehicle id="L4-CV-71" type="L4-CV-" depart="164.72">
        <route edges="top-approaching bottom-exit"/>
    </vehicle>
    <vehicle id="L4-CV-72" type="L4-CV-" depart="167.04">
        <route edges="right-approaching top-exit"/>
    </vehicle>
    <vehicle id="L4-CV-73" type="L4-CV-" depart="169.36">
        <route edges="top-approaching closed-lane remerging-lane left-exit"/>
    </vehicle>
    <vehicle id="L4-CV-75" type="L4-CV-" depart="174.00">
        <route edges="right-approaching bottom-exit"/>
    </vehicle>
    <vehicle id="L4-CV-76" type="L4-CV-" depart="176.32">
        <route edges="right-approaching bottom-exit"/>
    </vehicle>
    <vehicle id="L4-CV-77" type="L4-CV-" depart="178.64">
        <route edges="top-approaching bottom-exit"/>
    </vehicle>
    <vehicle id="L4-CV-79" type="L4-CV-" depart="183.28">
        <route edges="left-long-approaching preparation left-short-approaching right-exit"/>
    </vehicle>
    <vehicle id="L4-CV-80" type="L4-CV-Right-" depart="185.60">
        <route edges="left-long-approaching preparation left-short-approaching bottom-exit"/>
    </vehicle>
    <vehicle id="L4-CV-81" type="L4-CV-Left-" depart="187.92">
        <route edges="left-long-approaching preparation"/>
    </vehicle>
    <vehicle id="L4-CV-82" type="L4-CV-" depart="190.24">
        <route edges="right-approaching top-exit"/>
    </vehicle>
    <vehicle id="L4-CV-83" type="L4-CV-" depart="192.56">
        <route edges="bottom-approaching top-exit"/>
    </vehicle>
    <vehicle id="L4-CV-84" type="L4-CV-" depart="194.88">
        <route edges="top-approaching right-exit"/>
    </vehicle>
    <vehicle id="L4-CV-86" type="L4-CV-" depart="199.52">
        <route edges="top-approaching bottom-exit"/>
    </vehicle>
    <vehicle id="L4-CV-88" type="L4-CV-" depart="204.16">
        <route edges="left-long-approaching preparation left-short-approaching right-exit"/>
    </vehicle>
    <vehicle id="L4-CV-89" type="L4-CV-" depart="206.48">
        <route edges="right-approaching bottom-exit"/>
    </vehicle>
    <vehicle id="L4-CV-90" type="L4-CV-" depart="208.80">
        <route edges="right-approaching closed-lane remerging-lane left-exit"/>
    </vehicle>
    <vehicle id="L4-CV-91" type="L4-CV-" depart="211.12">
        <route edges="left-long-approaching preparation left-short-approaching right-exit"/>
    </vehicle>
    <vehicle id="L4-CV-92" type="L4-CV-" depart="213.44">
        <route edges="bottom-approaching right-exit"/>
    </vehicle>
    <vehicle id="L4-CV-93" type="L4-CV-Left-" depart="215.76">
        <route edges="left-long-approaching preparation"/>
    </vehicle>
    <vehicle id="L4-CV-94" type="L4-CV-" depart="218.08">
        <route edges="bottom-approaching top-exit"/>
    </vehicle>
    <vehicle id="L4-CV-96" type="L4-CV-" depart="222.72">
        <route edges="top-approaching bottom-exit"/>
    </vehicle>
    <vehicle id="L4-CV-98" type="L4-CV-" depart="227.36">
        <route edges="right-approaching closed-lane remerging-lane left-exit"/>
    </vehicle>
    <vehicle id="L4-CV-100" type="L4-CV-" depart="232.00">
        <route edges="right-approaching bottom-exit"/>
    </vehicle>
    <vehicle id="L4-CV-101" type="L4-CV-" depart="234.32">
        <route edges="bottom-approaching closed-lane remerging-lane left-exit"/>
    </vehicle>
    <vehicle id="L4-CV-102" type="L4-CV-" depart="236.64">
        <route edges="left-long-approaching preparation left-short-approaching right-exit"/>
    </vehicle>
    <vehicle id="L4-CV-103" type="L4-CV-" depart="238.96">
        <route edges="bottom-approaching top-exit"/>
    </vehicle>
    <vehicle id="L4-CV-104" type="L4-CV-Left-" depart="241.28">
        <route edges="left-long-approaching preparation"/>
    </vehicle>
    <vehicle id="L4-CV-105" type="L4-CV-" depart="243.60">
        <route edges="bottom-approaching top-exit"/>
    </vehicle>
    <vehicle id="L4-CV-106" type="L4-CV-" depart="245.92">
        <route edges="right-approaching top-exit"/>
    </vehicle>
    <vehicle id="L4-CV-108" type="L4-CV-" depart="250.56">
        <route edges="bottom-approaching closed-lane remerging-lane left-exit"/>
    </vehicle>
    <vehicle id="L4-CV-109" type="L4-CV-" depart="252.88">
        <route edges="bottom-approaching top-exit"/>
    </vehicle>
    <vehicle id="L4-CV-113" type="L4-CV-" depart="262.16">
        <route edges="left-long-approaching preparation left-short-approaching right-exit"/>
    </vehicle>
    <vehicle id="L4-CV-114" type="L4-CV-" depart="264.48">
        <route edges="left-long-approaching preparation left-short-approaching right-exit"/>
    </vehicle>
    <vehicle id="L4-CV-115" type="L4-CV-" depart="266.80">
        <route edges="left-long-approaching preparation left-short-approaching right-exit"/>
    </vehicle>
    <vehicle id="L4-CV-116" type="L4-CV-" depart="269.12">
        <route edges="bottom-approaching closed-lane remerging-lane left-exit"/>
    </vehicle>
    <vehicle id="L4-CV-117" type="L4-CV-" depart="271.44">
        <route edges="right-approaching bottom-exit"/>
    </vehicle>
    <vehicle id="L4-CV-118" type="L4-CV-Left-" depart="273.76">
        <route edges="left-long-approaching preparation"/>
    </vehicle>
    <vehicle id="L4-CV-120" type="L4-CV-" depart="278.40">
        <route edges="top-approaching bottom-exit"/>
    </vehicle>
    <vehicle id="L4-CV-121" type="L4-CV-Left-" depart="280.72">
        <route edges="left-long-approaching preparation"/>
    </vehicle>
    <vehicle id="L4-CV-122" type="L4-CV-" depart="283.04">
        <route edges="right-approaching bottom-exit"/>
    </vehicle>
    <vehicle id="L4-CV-123" type="L4-CV-" depart="285.36">
        <route edges="bottom-approaching closed-lane remerging-lane left-exit"/>
    </vehicle>
    <vehicle id="L4-CV-124" type="L4-CV-Left-" depart="287.68">
        <route edges="left-long-approaching preparation"/>
    </vehicle>
    <vehicle id="L4-CV-128" type="L4-CV-" depart="296.96">
        <route edges="top-approaching bottom-exit"/>
    </vehicle>
    <vehicle id="L4-CV-129" type="L4-CV-Right-" depart="299.28">
        <route edges="left-long-approaching preparation left-short-approaching bottom-exit"/>
    </vehicle>
    <vehicle id="L4-CV-130" type="L4-CV-" depart="301.60">
        <route edges="right-approaching closed-lane remerging-lane left-exit"/>
    </vehicle>
    <vehicle id="L4-CV-131" type="L4-CV-Left-" depart="303.92">
        <route edges="left-long-approaching preparation"/>
    </vehicle>
    <vehicle id="L4-CV-132" type="L4-CV-Right-" depart="306.24">
        <route edges="left-long-approaching preparation left-short-approaching bottom-exit"/>
    </vehicle>
    <vehicle id="L4-CV-135" type="L4-CV-Right-" depart="313.20">
        <route edges="left-long-approaching preparation left-short-approaching bottom-exit"/>
    </vehicle>
    <vehicle id="L4-CV-137" type="L4-CV-" depart="317.84">
        <route edges="bottom-approaching right-exit"/>
    </vehicle>
    <vehicle id="L4-CV-138" type="L4-CV-" depart="320.16">
        <route edges="bottom-approaching right-exit"/>
    </vehicle>
    <vehicle id="L4-CV-139" type="L4-CV-" depart="322.48">
        <route edges="right-approaching bottom-exit"/>
    </vehicle>
    <vehicle id="L4-CV-140" type="L4-CV-" depart="324.80">
        <route edges="right-approaching closed-lane remerging-lane left-exit"/>
    </vehicle>
    <vehicle id="L4-CV-141" type="L4-CV-" depart="327.12">
        <route edges="left-long-approaching preparation left-short-approaching right-exit"/>
    </vehicle>
    <vehicle id="L4-CV-143" type="L4-CV-" depart="331.76">
        <route edges="right-approaching bottom-exit"/>
    </vehicle>
    <vehicle id="L4-CV-144" type="L4-CV-" depart="334.08">
        <route edges="right-approaching closed-lane remerging-lane left-exit"/>
    </vehicle>
    <vehicle id="L4-CV-145" type="L4-CV-" depart="336.40">
        <route edges="bottom-approaching right-exit"/>
    </vehicle>
    <vehicle id="L4-CV-146" type="L4-CV-Left-" depart="338.72">
        <route edges="left-long-approaching preparation"/>
    </vehicle>
    <vehicle id="L4-CV-147" type="L4-CV-Left-" depart="341.04">
        <route edges="left-long-approaching preparation"/>
    </vehicle>
    <vehicle id="L4-CV-148" type="L4-CV-" depart="343.36">
        <route edges="right-approaching bottom-exit"/>
    </vehicle>
    <vehicle id="L4-CV-149" type="L4-CV-" depart="345.68">
        <route edges="right-approaching closed-lane remerging-lane left-exit"/>
    </vehicle>
    <vehicle id="L4-CV-150" type="L4-CV-" depart="348.00">
        <route edges="right-approaching bottom-exit"/>
    </vehicle>
    <vehicle id="L4-CV-151" type="L4-CV-" depart="350.32">
        <route edges="bottom-approaching top-exit"/>
    </vehicle>
    <vehicle id="L4-CV-155" type="L4-CV-" depart="359.60">
        <route edges="right-approaching closed-lane remerging-lane left-exit"/>
    </vehicle>
    <vehicle id="L4-CV-156" type="L4-CV-" depart="361.92">
        <route edges="top-approaching right-exit"/>
    </vehicle>
    <vehicle id="L4-CV-157" type="L4-CV-" depart="364.24">
        <route edges="bottom-approaching right-exit"/>
    </vehicle>
    <vehicle id="L4-CV-160" type="L4-CV-" depart="371.20">
        <route edges="bottom-approaching right-exit"/>
    </vehicle>
    <vehicle id="L4-CV-161" type="L4-CV-" depart="373.52">
        <route edges="top-approaching right-exit"/>
    </vehicle>
    <vehicle id="L4-CV-162" type="L4-CV-" depart="375.84">
        <route edges="bottom-approaching right-exit"/>
    </vehicle>
    <vehicle id="L4-CV-163" type="L4-CV-" depart="378.16">
        <route edges="bottom-approaching closed-lane remerging-lane left-exit"/>
    </vehicle>
    <vehicle id="L4-CV-164" type="L4-CV-" depart="380.48">
        <route edges="top-approaching right-exit"/>
    </vehicle>
    <vehicle id="L4-CV-166" type="L4-CV-Right-" depart="385.12">
        <route edges="left-long-approaching preparation left-short-approaching bottom-exit"/>
    </vehicle>
    <vehicle id="L4-CV-167" type="L4-CV-" depart="387.44">
        <route edges="left-long-approaching preparation left-short-approaching right-exit"/>
    </vehicle>
    <vehicle id="L4-CV-168" type="L4-CV-" depart="389.76">
        <route edges="bottom-approaching closed-lane remerging-lane left-exit"/>
    </vehicle>
    <vehicle id="L4-CV-169" type="L4-CV-" depart="392.08">
        <route edges="right-approaching closed-lane remerging-lane left-exit"/>
    </vehicle>
    <vehicle id="L4-CV-171" type="L4-CV-" depart="396.72">
        <route edges="top-approaching bottom-exit"/>
    </vehicle>
    <vehicle id="L4-CV-172" type="L4-CV-" depart="399.04">
        <route edges="bottom-approaching top-exit"/>
    </vehicle>
    <vehicle id="L4-CV-173" type="L4-CV-" depart="401.36">
        <route edges="right-approaching bottom-exit"/>
    </vehicle>
    <vehicle id="L4-CV-175" type="L4-CV-" depart="406.00">
        <route edges="right-approaching top-exit"/>
    </vehicle>
    <vehicle id="L4-CV-177" type="L4-CV-" depart="410.64">
        <route edges="right-approaching closed-lane remerging-lane left-exit"/>
    </vehicle>
    <vehicle id="L4-CV-179" type="L4-CV-" depart="415.28">
        <route edges="top-approaching right-exit"/>
    </vehicle>
    <vehicle id="L4-CV-180" type="L4-CV-Right-" depart="417.60">
        <route edges="left-long-approaching preparation left-short-approaching bottom-exit"/>
    </vehicle>
    <vehicle id="L4-CV-181" type="L4-CV-" depart="419.92">
        <route edges="top-approaching closed-lane remerging-lane left-exit"/>
    </vehicle>
    <vehicle id="L4-CV-182" type="L4-CV-" depart="422.24">
        <route edges="left-long-approaching preparation left-short-approaching right-exit"/>
    </vehicle>
    <vehicle id="L4-CV-183" type="L4-CV-" depart="424.56">
        <route edges="top-approaching right-exit"/>
    </vehicle>
    <vehicle id="L4-CV-185" type="L4-CV-" depart="429.20">
        <route edges="bottom-approaching closed-lane remerging-lane left-exit"/>
    </vehicle>
    <vehicle id="L4-CV-187" type="L4-CV-" depart="433.84">
        <route edges="top-approaching bottom-exit"/>
    </vehicle>
    <vehicle id="L4-CV-188" type="L4-CV-" depart="436.16">
        <route edges="right-approaching top-exit"/>
    </vehicle>
    <vehicle id="L4-CV-190" type="L4-CV-" depart="440.80">
        <route edges="top-approaching bottom-exit"/>
    </vehicle>
    <vehicle id="L4-CV-191" type="L4-CV-" depart="443.12">
        <route edges="bottom-approaching top-exit"/>
    </vehicle>
    <vehicle id="L4-CV-192" type="L4-CV-" depart="445.44">
        <route edges="right-approaching bottom-exit"/>
    </vehicle>
    <vehicle id="L4-CV-193" type="L4-CV-" depart="447.76">
        <route edges="top-approaching closed-lane remerging-lane left-exit"/>
    </vehicle>
    <vehicle id="L4-CV-194" type="L4-CV-" depart="450.08">
        <route edges="bottom-approaching closed-lane remerging-lane left-exit"/>
    </vehicle>
    <vehicle id="L4-CV-195" type="L4-CV-" depart="452.40">
        <route edges="bottom-approaching closed-lane remerging-lane left-exit"/>
    </vehicle>
    <vehicle id="L4-CV-196" type="L4-CV-" depart="454.72">
        <route edges="top-approaching closed-lane remerging-lane left-exit"/>
    </vehicle>
    <vehicle id="L4-CV-197" type="L4-CV-" depart="457.04">
        <route edges="top-approaching bottom-exit"/>
    </vehicle>
    <vehicle id="L4-CV-199" type="L4-CV-" depart="461.68">
        <route edges="right-approaching bottom-exit"/>
    </vehicle>
    <vehicle id="L4-CV-201" type="L4-CV-" depart="466.32">
        <route edges="right-approaching top-exit"/>
    </vehicle>
    <vehicle id="L4-CV-203" type="L4-CV-" depart="470.96">
        <route edges="bottom-approaching closed-lane remerging-lane left-exit"/>
    </vehicle>
    <vehicle id="L4-CV-204" type="L4-CV-" depart="473.28">
        <route edges="top-approaching closed-lane remerging-lane left-exit"/>
    </vehicle>
    <vehicle id="L4-CV-206" type="L4-CV-" depart="477.92">
        <route edges="bottom-approaching top-exit"/>
    </vehicle>
    <vehicle id="L4-CV-207" type="L4-CV-" depart="480.24">
        <route edges="right-approaching bottom-exit"/>
    </vehicle>
    <vehicle id="L4-CV-208" type="L4-CV-" depart="482.56">
        <route edges="top-approaching right-exit"/>
    </vehicle>
    <vehicle id="L4-CV-209" type="L4-CV-" depart="484.88">
        <route edges="left-long-approaching preparation left-short-approaching right-exit"/>
    </vehicle>
    <vehicle id="L4-CV-210" type="L4-CV-" depart="487.20">
        <route edges="top-approaching closed-lane remerging-lane left-exit"/>
    </vehicle>
    <vehicle id="L4-CV-212" type="L4-CV-" depart="491.84">
        <route edges="bottom-approaching right-exit"/>
    </vehicle>
    <vehicle id="L4-CV-213" type="L4-CV-Left-" depart="494.16">
        <route edges="left-long-approaching preparation"/>
    </vehicle>
    <vehicle id="L4-CV-215" type="L4-CV-Right-" depart="498.80">
        <route edges="left-long-approaching preparation left-short-approaching bottom-exit"/>
    </vehicle>
    <vehicle id="L4-CV-216" type="L4-CV-Right-" depart="501.12">
        <route edges="left-long-approaching preparation left-short-approaching bottom-exit"/>
    </vehicle>
    <vehicle id="L4-CV-217" type="L4-CV-" depart="503.44">
        <route edges="bottom-approaching right-exit"/>
    </vehicle>
    <vehicle id="L4-CV-218" type="L4-CV-" depart="505.76">
        <route edges="top-approaching closed-lane remerging-lane left-exit"/>
    </vehicle>
    <vehicle id="L4-CV-219" type="L4-CV-" depart="508.08">
        <route edges="right-approaching closed-lane remerging-lane left-exit"/>
    </vehicle>
    <vehicle id="L4-CV-220" type="L4-CV-" depart="510.40">
        <route edges="top-approaching right-exit"/>
    </vehicle>
    <vehicle id="L4-CV-221" type="L4-CV-" depart="512.72">
        <route edges="bottom-approaching right-exit"/>
    </vehicle>
    <vehicle id="L4-CV-223" type="L4-CV-" depart="517.36">
        <route edges="bottom-approaching top-exit"/>
    </vehicle>
    <vehicle id="L4-CV-224" type="L4-CV-" depart="519.68">
        <route edges="right-approaching closed-lane remerging-lane left-exit"/>
    </vehicle>
    <vehicle id="L4-CV-226" type="L4-CV-" depart="524.32">
        <route edges="bottom-approaching right-exit"/>
    </vehicle>
    <vehicle id="L4-CV-227" type="L4-CV-" depart="526.64">
        <route edges="right-approaching top-exit"/>
    </vehicle>
    <vehicle id="L4-CV-228" type="L4-CV-" depart="528.96">
        <route edges="bottom-approaching right-exit"/>
    </vehicle>
    <vehicle id="L4-CV-229" type="L4-CV-" depart="531.28">
        <route edges="right-approaching top-exit"/>
    </vehicle>
    <vehicle id="L4-CV-230" type="L4-CV-" depart="533.60">
        <route edges="left-long-approaching preparation left-short-approaching right-exit"/>
    </vehicle>
    <vehicle id="L4-CV-231" type="L4-CV-" depart="535.92">
        <route edges="top-approaching closed-lane remerging-lane left-exit"/>
    </vehicle>
    <vehicle id="L4-CV-232" type="L4-CV-" depart="538.24">
        <route edges="right-approaching top-exit"/>
    </vehicle>
    <vehicle id="L4-CV-233" type="L4-CV-" depart="540.56">
        <route edges="bottom-approaching top-exit"/>
    </vehicle>
    <vehicle id="L4-CV-235" type="L4-CV-Left-" depart="545.20">
        <route edges="left-long-approaching preparation"/>
    </vehicle>
    <vehicle id="L4-CV-237" type="L4-CV-" depart="549.84">
        <route edges="bottom-approaching top-exit"/>
    </vehicle>
    <vehicle id="L4-CV-238" type="L4-CV-" depart="552.16">
        <route edges="top-approaching right-exit"/>
    </vehicle>
    <vehicle id="L4-CV-239" type="L4-CV-" depart="554.48">
        <route edges="bottom-approaching closed-lane remerging-lane left-exit"/>
    </vehicle>
    <vehicle id="L4-CV-240" type="L4-CV-Right-" depart="556.80">
        <route edges="left-long-approaching preparation left-short-approaching bottom-exit"/>
    </vehicle>
    <vehicle id="L4-CV-241" type="L4-CV-" depart="559.12">
        <route edges="top-approaching closed-lane remerging-lane left-exit"/>
    </vehicle>
    <vehicle id="L4-CV-242" type="L4-CV-" depart="561.44">
        <route edges="top-approaching bottom-exit"/>
    </vehicle>
    <vehicle id="L4-CV-243" type="L4-CV-" depart="563.76">
        <route edges="right-approaching top-exit"/>
    </vehicle>
    <vehicle id="L4-CV-244" type="L4-CV-" depart="566.08">
        <route edges="right-approaching closed-lane remerging-lane left-exit"/>
    </vehicle>
    <vehicle id="L4-CV-245" type="L4-CV-" depart="568.40">
        <route edges="bottom-approaching closed-lane remerging-lane left-exit"/>
    </vehicle>
    <vehicle id="L4-CV-246" type="L4-CV-Left-" depart="570.72">
        <route edges="left-long-approaching preparation"/>
    </vehicle>
    <vehicle id="L4-CV-248" type="L4-CV-" depart="575.36">
        <route edges="top-approaching bottom-exit"/>
    </vehicle>
    <vehicle id="L4-CV-249" type="L4-CV-" depart="577.68">
        <route edges="bottom-approaching closed-lane remerging-lane left-exit"/>
    </vehicle>
    <vehicle id="L4-CV-251" type="L4-CV-" depart="582.32">
        <route edges="right-approaching bottom-exit"/>
    </vehicle>
    <vehicle id="L4-CV-252" type="L4-CV-" depart="584.64">
        <route edges="right-approaching closed-lane remerging-lane left-exit"/>
    </vehicle>
    <vehicle id="L4-CV-253" type="L4-CV-Left-" depart="586.96">
        <route edges="left-long-approaching preparation"/>
    </vehicle>
    <vehicle id="L4-CV-254" type="L4-CV-" depart="589.28">
        <route edges="bottom-approaching top-exit"/>
    </vehicle>
    <vehicle id="L4-CV-256" type="L4-CV-" depart="593.92">
        <route edges="bottom-approaching right-exit"/>
    </vehicle>
    <vehicle id="L4-CV-257" type="L4-CV-" depart="596.24">
        <route edges="top-approaching bottom-exit"/>
    </vehicle>
    <vehicle id="L4-CV-258" type="L4-CV-" depart="598.56">
        <route edges="left-long-approaching preparation left-short-approaching right-exit"/>
    </vehicle>
    <vehicle id="L4-CV-259" type="L4-CV-" depart="600.88">
        <route edges="left-long-approaching preparation left-short-approaching right-exit"/>
    </vehicle>
    <vehicle id="L4-CV-260" type="L4-CV-" depart="603.20">
        <route edges="right-approaching closed-lane remerging-lane left-exit"/>
    </vehicle>
    <vehicle id="L4-CV-261" type="L4-CV-" depart="605.52">
        <route edges="right-approaching top-exit"/>
    </vehicle>
    <vehicle id="L4-CV-262" type="L4-CV-" depart="607.84">
        <route edges="left-long-approaching preparation left-short-approaching right-exit"/>
    </vehicle>
    <vehicle id="L4-CV-263" type="L4-CV-" depart="610.16">
        <route edges="right-approaching closed-lane remerging-lane left-exit"/>
    </vehicle>
    <vehicle id="L4-CV-264" type="L4-CV-" depart="612.48">
        <route edges="bottom-approaching closed-lane remerging-lane left-exit"/>
    </vehicle>