<?xml version="1.0" ?><!-- generated on 04/05/21 19:23:51 by Eclipse SUMO duarouter Version 1.8.0
<configuration xmlns:xsi="http://www.w3.org/2001/XMLSchema-instance" xsi:noNamespaceSchemaLocation="http://sumo.dlr.de/xsd/duarouterConfiguration.xsd">

    <input>
        <net-file value="Roadworks/RoadworksIntersection.net.xml"/>
        <route-files value="trips.trips.xml"/>
    </input>

    <output>
        <output-file value="Roadworks/RealTMSPenetration2/Route-Files/L4-CV-Route.rou.xml"/>
        <alternatives-output value="Roadworks/RealTMSPenetration2/Route-Files/L4-CV-Route.rou.alt.xml"/>
    </output>

    <time>
        <begin value="0"/>
        <end value="3600"/>
    </time>

    <report>
        <no-warnings value="true"/>
        <ignore-errors value="true"/>
        <no-step-log value="true"/>
    </report>

</configuration>
--><routes xmlns:xsi="http://www.w3.org/2001/XMLSchema-instance" xsi:noNamespaceSchemaLocation="http://sumo.dlr.de/xsd/routes_file.xsd">
    <vehicle id="L4-CV-2" type="L4-CV-" depart="22.00">
        <route edges="top-approaching right-exit"/>
    </vehicle>
    <vehicle id="L4-CV-3" type="L4-CV-" depart="33.00">
        <route edges="right-approaching closed-lane remerging-lane left-exit"/>
    </vehicle>
    <vehicle id="L4-CV-5" type="L4-CV-" depart="55.00">
        <route edges="right-approaching bottom-exit"/>
    </vehicle>
    <vehicle id="L4-CV-7" type="L4-CV-" depart="77.00">
        <route edges="right-approaching top-exit"/>
    </vehicle>
    <vehicle id="L4-CV-8" type="L4-CV-" depart="88.00">
        <route edges="top-approaching right-exit"/>
    </vehicle>
    <vehicle id="L4-CV-12" type="L4-CV-Left-" depart="132.00">
        <route edges="left-long-approaching preparation"/>
    </vehicle>
    <vehicle id="L4-CV-15" type="L4-CV-Right-" depart="165.00">
        <route edges="left-long-approaching preparation left-short-approaching bottom-exit"/>
    </vehicle>
    <vehicle id="L4-CV-16" type="L4-CV-" depart="176.00">
        <route edges="right-approaching top-exit"/>
    </vehicle>
    <vehicle id="L4-CV-17" type="L4-CV-" depart="187.00">
        <route edges="right-approaching bottom-exit"/>
    </vehicle>
    <vehicle id="L4-CV-19" type="L4-CV-" depart="209.00">
        <route edges="right-approaching top-exit"/>
    </vehicle>
    <vehicle id="L4-CV-21" type="L4-CV-Left-" depart="231.00">
        <route edges="left-long-approaching preparation"/>
    </vehicle>
    <vehicle id="L4-CV-22" type="L4-CV-" depart="242.00">
        <route edges="top-approaching bottom-exit"/>
    </vehicle>
    <vehicle id="L4-CV-23" type="L4-CV-" depart="253.00">
        <route edges="top-approaching right-exit"/>
    </vehicle>
    <vehicle id="L4-CV-24" type="L4-CV-" depart="264.00">
        <route edges="left-long-approaching preparation left-short-approaching right-exit"/>
    </vehicle>
    <vehicle id="L4-CV-25" type="L4-CV-Left-" depart="275.00">
        <route edges="left-long-approaching preparation"/>
    </vehicle>
    <vehicle id="L4-CV-26" type="L4-CV-Left-" depart="286.00">
        <route edges="left-long-approaching preparation"/>
    </vehicle>
    <vehicle id="L4-CV-27" type="L4-CV-Left-" depart="297.00">
        <route edges="left-long-approaching preparation"/>
    </vehicle>
    <vehicle id="L4-CV-28" type="L4-CV-" depart="308.00">
        <route edges="top-approaching closed-lane remerging-lane left-exit"/>
    </vehicle>
    <vehicle id="L4-CV-29" type="L4-CV-" depart="319.00">
        <route edges="right-approaching top-exit"/>
    </vehicle>
    <vehicle id="L4-CV-30" type="L4-CV-" depart="330.00">
        <route edges="right-approaching closed-lane remerging-lane left-exit"/>
    </vehicle>
    <vehicle id="L4-CV-31" type="L4-CV-" depart="341.00">
        <route edges="bottom-approaching closed-lane remerging-lane left-exit"/>
    </vehicle>
    <vehicle id="L4-CV-32" type="L4-CV-" depart="352.00">
        <route edges="right-approaching bottom-exit"/>
    </vehicle>
    <vehicle id="L4-CV-33" type="L4-CV-" depart="363.00">
        <route edges="top-approaching closed-lane remerging-lane left-exit"/>
    </vehicle>
    <vehicle id="L4-CV-34" type="L4-CV-" depart="374.00">
        <route edges="top-approaching closed-lane remerging-lane left-exit"/>
    </vehicle>
    <vehicle id="L4-CV-35" type="L4-CV-" depart="385.00">
        <route edges="top-approaching right-exit"/>
    </vehicle>
    <vehicle id="L4-CV-38" type="L4-CV-Right-" depart="418.00">
        <route edges="left-long-approaching preparation left-short-approaching bottom-exit"/>
    </vehicle>
    <vehicle id="L4-CV-39" type="L4-CV-" depart="429.00">
        <route edges="right-approaching top-exit"/>
    </vehicle>
    <vehicle id="L4-CV-40" type="L4-CV-" depart="440.00">
        <route edges="right-approaching bottom-exit"/>
    </vehicle>
    <vehicle id="L4-CV-41" type="L4-CV-" depart="451.00">
        <route edges="top-approaching right-exit"/>
    </vehicle>
    <vehicle id="L4-CV-42" type="L4-CV-" depart="462.00">
        <route edges="top-approaching bottom-exit"/>
    </vehicle>
    <vehicle id="L4-CV-43" type="L4-CV-" depart="473.00">
        <route edges="right-approaching bottom-exit"/>
    </vehicle>
    <vehicle id="L4-CV-44" type="L4-CV-" depart="484.00">
        <route edges="right-approaching closed-lane remerging-lane left-exit"/>
    </vehicle>
    <vehicle id="L4-CV-45" type="L4-CV-" depart="495.00">
        <route edges="bottom-approaching top-exit"/>
    </vehicle>
    <vehicle id="L4-CV-46" type="L4-CV-" depart="506.00">
        <route edges="bottom-approaching right-exit"/>
    </vehicle>
    <vehicle id="L4-CV-47" type="L4-CV-" depart="517.00">
        <route edges="top-approaching bottom-exit"/>
    </vehicle>
    <vehicle id="L4-CV-48" type="L4-CV-" depart="528.00">
        <route edges="bottom-approaching top-exit"/>
    </vehicle>
    <vehicle id="L4-CV-49" type="L4-CV-" depart="539.00">
        <route edges="left-long-approaching preparation left-short-approaching right-exit"/>
    </vehicle>
    <vehicle id="L4-CV-50" type="L4-CV-" depart="550.00">
        <route edges="bottom-approaching closed-lane remerging-lane left-exit"/>
    </vehicle>
    <vehicle id="L4-CV-51" type="L4-CV-" depart="561.00">
        <route edges="bottom-approaching right-exit"/>
    </vehicle>
    <vehicle id="L4-CV-52" type="L4-CV-" depart="572.00">
        <route edges="bottom-approaching top-exit"/>
    </vehicle>
    <vehicle id="L4-CV-53" type="L4-CV-" depart="583.00">
        <route edges="bottom-approaching right-exit"/>
    </vehicle>
    <vehicle id="L4-CV-54" type="L4-CV-" depart="594.00">
        <route edges="bottom-approaching closed-lane remerging-lane left-exit"/>
    </vehicle>
    <vehicle id="L4-CV-55" type="L4-CV-" depart="605.00">
        <route edges="top-approaching bottom-exit"/>
    </vehicle>
    <vehicle id="L4-CV-56" type="L4-CV-" depart="616.00">
        <route edges="bottom-approaching right-exit"/>
    </vehicle>
    <vehicle id="L4-CV-57" type="L4-CV-Right-" depart="627.00">
        <route edges="left-long-approaching preparation left-short-approaching bottom-exit"/>
    </vehicle>
    <vehicle id="L4-CV-58" type="L4-CV-" depart="638.00">
        <route edges="top-approaching bottom-exit"/>
    </vehicle>
    <vehicle id="L4-CV-59" type="L4-CV-" depart="649.00">
        <route edges="bottom-approaching closed-lane remerging-lane left-exit"/>
    </vehicle>
    <vehicle id="L4-CV-61" type="L4-CV-" depart="671.00">
        <route edges="bottom-approaching closed-lane remerging-lane left-exit"/>
    </vehicle>
    <vehicle id="L4-CV-62" type="L4-CV-" depart="682.00">
        <route edges="bottom-approaching closed-lane remerging-lane left-exit"/>
    </vehicle>
    <vehicle id="L4-CV-63" type="L4-CV-" depart="693.00">
        <route edges="top-approaching right-exit"/>
    </vehicle>
    <vehicle id="L4-CV-65" type="L4-CV-" depart="715.00">
        <route edges="top-approaching right-exit"/>
    </vehicle>
    <vehicle id="L4-CV-66" type="L4-CV-Right-" depart="726.00">
        <route edges="left-long-approaching preparation left-short-approaching bottom-exit"/>
    </vehicle>
    <vehicle id="L4-CV-67" type="L4-CV-" depart="737.00">
        <route edges="right-approaching closed-lane remerging-lane left-exit"/>
    </vehicle>
    <vehicle id="L4-CV-68" type="L4-CV-" depart="748.00">
        <route edges="bottom-approaching closed-lane remerging-lane left-exit"/>
    </vehicle>
    <vehicle id="L4-CV-69" type="L4-CV-" depart="759.00">
        <route edges="top-approaching bottom-exit"/>
    </vehicle>
    <vehicle id="L4-CV-70" type="L4-CV-" depart="770.00">
        <route edges="right-approaching closed-lane remerging-lane left-exit"/>
    </vehicle>
    <vehicle id="L4-CV-71" type="L4-CV-" depart="781.00">
        <route edges="right-approaching bottom-exit"/>
    </vehicle>
    <vehicle id="L4-CV-72" type="L4-CV-" depart="792.00">
        <route edges="top-approaching closed-lane remerging-lane left-exit"/>
    </vehicle>
    <vehicle id="L4-CV-73" type="L4-CV-" depart="803.00">
        <route edges="right-approaching closed-lane remerging-lane left-exit"/>
    </vehicle>
    <vehicle id="L4-CV-74" type="L4-CV-" depart="814.00">
        <route edges="bottom-approaching right-exit"/>
    </vehicle>
    <vehicle id="L4-CV-77" type="L4-CV-" depart="847.00">
        <route edges="bottom-approaching right-exit"/>
    </vehicle>
    <vehicle id="L4-CV-78" type="L4-CV-" depart="858.00">
        <route edges="right-approaching top-exit"/>
    </vehicle>
    <vehicle id="L4-CV-80" type="L4-CV-" depart="880.00">
        <route edges="bottom-approaching closed-lane remerging-lane left-exit"/>
    </vehicle>
    <vehicle id="L4-CV-81" type="L4-CV-" depart="891.00">
        <route edges="left-long-approaching preparation left-short-approaching right-exit"/>
    </vehicle>
    <vehicle id="L4-CV-82" type="L4-CV-" depart="902.00">
        <route edges="right-approaching top-exit"/>
    </vehicle>
    <vehicle id="L4-CV-83" type="L4-CV-" depart="913.00">
        <route edges="right-approaching closed-lane remerging-lane left-exit"/>
    </vehicle>
    <vehicle id="L4-CV-84" type="L4-CV-" depart="924.00">
        <route edges="left-long-approaching preparation left-short-approaching right-exit"/>
    </vehicle>
    <vehicle id="L4-CV-86" type="L4-CV-Right-" depart="946.00">
        <route edges="left-long-approaching preparation left-short-approaching bottom-exit"/>
    </vehicle>
    <vehicle id="L4-CV-87" type="L4-CV-" depart="957.00">
        <route edges="right-approaching bottom-exit"/>
    </vehicle>
    <vehicle id="L4-CV-90" type="L4-CV-" depart="990.00">
        <route edges="right-approaching closed-lane remerging-lane left-exit"/>
    </vehicle>
    <vehicle id="L4-CV-91" type="L4-CV-" depart="1001.00">
        <route edges="left-long-approaching preparation left-short-approaching right-exit"/>
    </vehicle>
    <vehicle id="L4-CV-92" type="L4-CV-" depart="1012.00">
        <route edges="bottom-approaching top-exit"/>
    </vehicle>
    <vehicle id="L4-CV-93" type="L4-CV-" depart="1023.00">
        <route edges="top-approaching right-exit"/>
    </vehicle>
    <vehicle id="L4-CV-94" type="L4-CV-" depart="1034.00">
        <route edges="left-long-approaching preparation left-short-approaching right-exit"/>
    </vehicle>
    <vehicle id="L4-CV-95" type="L4-CV-" depart="1045.00">
        <route edges="right-approaching bottom-exit"/>
    </vehicle>
    <vehicle id="L4-CV-96" type="L4-CV-" depart="1056.00">
        <route edges="left-long-approaching preparation left-short-approaching right-exit"/>
    </vehicle>
    <vehicle id="L4-CV-98" type="L4-CV-" depart="1078.00">
        <route edges="top-approaching closed-lane remerging-lane left-exit"/>
    </vehicle>
    <vehicle id="L4-CV-99" type="L4-CV-" depart="1089.00">
        <route edges="right-approaching top-exit"/>
    </vehicle>
    <vehicle id="L4-CV-100" type="L4-CV-" depart="1100.00">
        <route edges="right-approaching closed-lane remerging-lane left-exit"/>
    </vehicle>
    <vehicle id="L4-CV-101" type="L4-CV-" depart="1111.00">
        <route edges="top-approaching closed-lane remerging-lane left-exit"/>
    </vehicle>
    <vehicle id="L4-CV-102" type="L4-CV-" depart="1122.00">
        <route edges="bottom-approaching right-exit"/>
    </vehicle>
    <vehicle id="L4-CV-103" type="L4-CV-" depart="1133.00">
        <route edges="bottom-approaching closed-lane remerging-lane left-exit"/>
    </vehicle>
    <vehicle id="L4-CV-104" type="L4-CV-" depart="1144.00">
        <route edges="top-approaching right-exit"/>
    </vehicle>
    <vehicle id="L4-CV-105" type="L4-CV-" depart="1155.00">
        <route edges="bottom-approaching closed-lane remerging-lane left-exit"/>
    </vehicle>
    <vehicle id="L4-CV-107" type="L4-CV-" depart="1177.00">
        <route edges="bottom-approaching right-exit"/>
    </vehicle>
    <vehicle id="L4-CV-108" type="L4-CV-" depart="1188.00">
        <route edges="bottom-approaching closed-lane remerging-lane left-exit"/>
    </vehicle>
    <vehicle id="L4-CV-109" type="L4-CV-Left-" depart="1199.00">
        <route edges="left-long-approaching preparation"/>
    </vehicle>
    <vehicle id="L4-CV-110" type="L4-CV-" depart="1210.00">
        <route edges="bottom-approaching top-exit"/>
    </vehicle>
    <vehicle id="L4-CV-111" type="L4-CV-" depart="1221.00">
        <route edges="bottom-approaching right-exit"/>
    </vehicle>
    <vehicle id="L4-CV-113" type="L4-CV-" depart="1243.00">
        <route edges="top-approaching closed-lane remerging-lane left-exit"/>
    </vehicle>
    <vehicle id="L4-CV-115" type="L4-CV-" depart="1265.00">
        <route edges="bottom-approaching top-exit"/>
    </vehicle>
    <vehicle id="L4-CV-116" type="L4-CV-" depart="1276.00">
        <route edges="right-approaching top-exit"/>
    </vehicle>
    <vehicle id="L4-CV-117" type="L4-CV-" depart="1287.00">
        <route edges="right-approaching bottom-exit"/>
    </vehicle>
    <vehicle id="L4-CV-118" type="L4-CV-" depart="1298.00">
        <route edges="right-approaching top-exit"/>
    </vehicle>
    <vehicle id="L4-CV-121" type="L4-CV-" depart="1331.00">
        <route edges="top-approaching closed-lane remerging-lane left-exit"/>
    </vehicle>
    <vehicle id="L4-CV-122" type="L4-CV-" depart="1342.00">
        <route edges="right-approaching closed-lane remerging-lane left-exit"/>
    </vehicle>
    <vehicle id="L4-CV-125" type="L4-CV-Right-" depart="1375.00">
        <route edges="left-long-approaching preparation left-short-approaching bottom-exit"/>
    </vehicle>
    <vehicle id="L4-CV-127" type="L4-CV-" depart="1397.00">
        <route edges="left-long-approaching preparation left-short-approaching right-exit"/>
    </vehicle>
    <vehicle id="L4-CV-128" type="L4-CV-" depart="1408.00">
        <route edges="top-approaching right-exit"/>
    </vehicle>
    <vehicle id="L4-CV-129" type="L4-CV-" depart="1419.00">
        <route edges="top-approaching bottom-exit"/>
    </vehicle>
    <vehicle id="L4-CV-130" type="L4-CV-Left-" depart="1430.00">
        <route edges="left-long-approaching preparation"/>
    </vehicle>
    <vehicle id="L4-CV-131" type="L4-CV-" depart="1441.00">
        <route edges="bottom-approaching closed-lane remerging-lane left-exit"/>
    </vehicle>
    <vehicle id="L4-CV-134" type="L4-CV-" depart="1474.00">
        <route edges="right-approaching bottom-exit"/>
    </vehicle>
    <vehicle id="L4-CV-135" type="L4-CV-Right-" depart="1485.00">
        <route edges="left-long-approaching preparation left-short-approaching bottom-exit"/>
    </vehicle>
    <vehicle id="L4-CV-137" type="L4-CV-" depart="1507.00">
        <route edges="left-long-approaching preparation left-short-approaching right-exit"/>
    </vehicle>
    <vehicle id="L4-CV-138" type="L4-CV-" depart="1518.00">
        <route edges="bottom-approaching right-exit"/>
    </vehicle>
    <vehicle id="L4-CV-140" type="L4-CV-" depart="1540.00">
        <route edges="bottom-approaching right-exit"/>
    </vehicle>
    <vehicle id="L4-CV-141" type="L4-CV-" depart="1551.00">
        <route edges="right-approaching closed-lane remerging-lane left-exit"/>
    </vehicle>
    <vehicle id="L4-CV-142" type="L4-CV-" depart="1562.00">
        <route edges="top-approaching closed-lane remerging-lane left-exit"/>
    </vehicle>
    <vehicle id="L4-CV-143" type="L4-CV-" depart="1573.00">
        <route edges="right-approaching closed-lane remerging-lane left-exit"/>
    </vehicle>
    <vehicle id="L4-CV-145" type="L4-CV-" depart="1595.00">
        <route edges="right-approaching bottom-exit"/>
    </vehicle>
    <vehicle id="L4-CV-146" type="L4-CV-Right-" depart="1606.00">
        <route edges="left-long-approaching preparation left-short-approaching bottom-exit"/>
    </vehicle>
    <vehicle id="L4-CV-147" type="L4-CV-" depart="1617.00">
        <route edges="right-approaching top-exit"/>
    </vehicle>
    <vehicle id="L4-CV-148" type="L4-CV-" depart="1628.00">
        <route edges="bottom-approaching right-exit"/>
    </vehicle>
    <vehicle id="L4-CV-150" type="L4-CV-" depart="1650.00">
        <route edges="right-approaching top-exit"/>
    </vehicle>
    <vehicle id="L4-CV-151" type="L4-CV-" depart="1661.00">
        <route edges="right-approaching closed-lane remerging-lane left-exit"/>
    </vehicle>
    <vehicle id="L4-CV-152" type="L4-CV-" depart="1672.00">
        <route edges="top-approaching closed-lane remerging-lane left-exit"/>
    </vehicle>
    <vehicle id="L4-CV-155" type="L4-CV-" depart="1705.00">
        <route edges="bottom-approaching right-exit"/>
    </vehicle>
    <vehicle id="L4-CV-156" type="L4-CV-" depart="1716.00">
        <route edges="left-long-approaching preparation left-short-approaching right-exit"/>
    </vehicle>
    <vehicle id="L4-CV-157" type="L4-CV-" depart="1727.00">
        <route edges="top-approaching right-exit"/>
    </vehicle>
    <vehicle id="L4-CV-158" type="L4-CV-" depart="1738.00">
        <route edges="bottom-approaching closed-lane remerging-lane left-exit"/>
    </vehicle>
    <vehicle id="L4-CV-159" type="L4-CV-" depart="1749.00">
        <route edges="right-approaching top-exit"/>
    </vehicle>
    <vehicle id="L4-CV-160" type="L4-CV-" depart="1760.00">
        <route edges="right-approaching top-exit"/>
    </vehicle>
    <vehicle id="L4-CV-161" type="L4-CV-" depart="1771.00">
        <route edges="bottom-approaching top-exit"/>
    </vehicle>
    <vehicle id="L4-CV-164" type="L4-CV-" depart="1804.00">
        <route edges="bottom-approaching top-exit"/>
    </vehicle>
    <vehicle id="L4-CV-165" type="L4-CV-" depart="1815.00">
        <route edges="top-approaching bottom-exit"/>
    </vehicle>
    <vehicle id="L4-CV-167" type="L4-CV-" depart="1837.00">
        <route edges="bottom-approaching top-exit"/>
    </vehicle>
    <vehicle id="L4-CV-168" type="L4-CV-" depart="1848.00">
        <route edges="bottom-approaching right-exit"/>
    </vehicle>
    <vehicle id="L4-CV-170" type="L4-CV-" depart="1870.00">
        <route edges="right-approaching closed-lane remerging-lane left-exit"/>
    </vehicle>
    <vehicle id="L4-CV-171" type="L4-CV-" depart="1881.00">
        <route edges="bottom-approaching top-exit"/>
    </vehicle>
    <vehicle id="L4-CV-173" type="L4-CV-Left-" depart="1903.00">
        <route edges="left-long-approaching preparation"/>
    </vehicle>
    <vehicle id="L4-CV-174" type="L4-CV-" depart="1914.00">
        <route edges="right-approaching top-exit"/>
    </vehicle>
    <vehicle id="L4-CV-175" type="L4-CV-" depart="1925.00">
        <route edges="left-long-approaching preparation left-short-approaching right-exit"/>
    </vehicle>
    <vehicle id="L4-CV-177" type="L4-CV-Right-" depart="1947.00">
        <route edges="left-long-approaching preparation left-short-approaching bottom-exit"/>
    </vehicle>
    <vehicle id="L4-CV-178" type="L4-CV-" depart="1958.00">
        <route edges="bottom-approaching top-exit"/>
    </vehicle>
    <vehicle id="L4-CV-179" type="L4-CV-" depart="1969.00">
        <route edges="bottom-approaching right-exit"/>
    </vehicle>
    <vehicle id="L4-CV-180" type="L4-CV-" depart="1980.00">
        <route edges="top-approaching closed-lane remerging-lane left-exit"/>
    </vehicle>
    <vehicle id="L4-CV-181" type="L4-CV-" depart="1991.00">
        <route edges="right-approaching top-exit"/>
    </vehicle>
    <vehicle id="L4-CV-182" type="L4-CV-" depart="2002.00">
        <route edges="top-approaching bottom-exit"/>
    </vehicle>
    <vehicle id="L4-CV-183" type="L4-CV-" depart="2013.00">
        <route edges="bottom-approaching closed-lane remerging-lane left-exit"/>
    </vehicle>
    <vehicle id="L4-CV-185" type="L4-CV-" depart="2035.00">
        <route edges="bottom-approaching right-exit"/>
    </vehicle>
    <vehicle id="L4-CV-186" type="L4-CV-" depart="2046.00">
        <route edges="top-approaching closed-lane remerging-lane left-exit"/>
    </vehicle>
    <vehicle id="L4-CV-187" type="L4-CV-" depart="2057.00">
        <route edges="right-approaching closed-lane remerging-lane left-exit"/>
    </vehicle>
    <vehicle id="L4-CV-188" type="L4-CV-Left-" depart="2068.00">
        <route edges="left-long-approaching preparation"/>
    </vehicle>
    <vehicle id="L4-CV-189" type="L4-CV-" depart="2079.00">
        <route edges="left-long-approaching preparation left-short-approaching right-exit"/>
    </vehicle>
    <vehicle id="L4-CV-190" type="L4-CV-" depart="2090.00">
        <route edges="left-long-approaching preparation left-short-approaching right-exit"/>
    </vehicle>
    <vehicle id="L4-CV-191" type="L4-CV-" depart="2101.00">
        <route edges="top-approaching bottom-exit"/>
    </vehicle>
    <vehicle id="L4-CV-192" type="L4-CV-" depart="2112.00">
        <route edges="top-approaching closed-lane remerging-lane left-exit"/>
    </vehicle>
    <vehicle id="L4-CV-193" type="L4-CV-" depart="2123.00">
        <route edges="right-approaching top-exit"/>
    </vehicle>
    <vehicle id="L4-CV-194" type="L4-CV-" depart="2134.00">
        <route edges="right-approaching closed-lane remerging-lane left-exit"/>
    </vehicle>
    <vehicle id="L4-CV-195" type="L4-CV-" depart="2145.00">
        <route edges="top-approaching bottom-exit"/>
    </vehicle>
    <vehicle id="L4-CV-196" type="L4-CV-" depart="2156.00">
        <route edges="right-approaching closed-lane remerging-lane left-exit"/>
    </vehicle>
    <vehicle id="L4-CV-197" type="L4-CV-" depart="2167.00">
        <route edges="right-approaching top-exit"/>
    </vehicle>
    <vehicle id="L4-CV-198" type="L4-CV-" depart="2178.00">
        <route edges="top-approaching right-exit"/>
    </vehicle>
    <vehicle id="L4-CV-199" type="L4-CV-Right-" depart="2189.00">
        <route edges="left-long-approaching preparation left-short-approaching bottom-exit"/>
    </vehicle>
    <vehicle id="L4-CV-200" type="L4-CV-Right-" depart="2200.00">
        <route edges="left-long-approaching preparation left-short-approaching bottom-exit"/>
    </vehicle>
    <vehicle id="L4-CV-201" type="L4-CV-Left-" depart="2211.00">
        <route edges="left-long-approaching preparation"/>
    </vehicle>
    <vehicle id="L4-CV-202" type="L4-CV-" depart="2222.00">
        <route edges="bottom-approaching top-exit"/>
    </vehicle>
    <vehicle id="L4-CV-204" type="L4-CV-Right-" depart="2244.00">
        <route edges="left-long-approaching preparation left-short-approaching bottom-exit"/>
    </vehicle>
    <vehicle id="L4-CV-205" type="L4-CV-Right-" depart="2255.00">
        <route edges="left-long-approaching preparation left-short-approaching bottom-exit"/>
    </vehicle>
    <vehicle id="L4-CV-208" type="L4-CV-" depart="2288.00">
        <route edges="left-long-approaching preparation left-short-approaching right-exit"/>
    </vehicle>
    <vehicle id="L4-CV-209" type="L4-CV-" depart="2299.00">
        <route edges="top-approaching closed-lane remerging-lane left-exit"/>
    </vehicle>
    <vehicle id="L4-CV-211" type="L4-CV-" depart="2321.00">
        <route edges="bottom-approaching right-exit"/>
    </vehicle>
    <vehicle id="L4-CV-213" type="L4-CV-" depart="2343.00">
        <route edges="top-approaching bottom-exit"/>
    </vehicle>
    <vehicle id="L4-CV-214" type="L4-CV-" depart="2354.00">
        <route edges="top-approaching right-exit"/>
    </vehicle>
    <vehicle id="L4-CV-215" type="L4-CV-Left-" depart="2365.00">
        <route edges="left-long-approaching preparation"/>
    </vehicle>
    <vehicle id="L4-CV-216" type="L4-CV-Left-" depart="2376.00">
        <route edges="left-long-approaching preparation"/>
    </vehicle>
    <vehicle id="L4-CV-218" type="L4-CV-" depart="2398.00">
        <route edges="right-approaching top-exit"/>
    </vehicle>
    <vehicle id="L4-CV-222" type="L4-CV-" depart="2442.00">
        <route edges="left-long-approaching preparation left-short-approaching right-exit"/>
    </vehicle>
    <vehicle id="L4-CV-223" type="L4-CV-" depart="2453.00">
        <route edges="right-approaching closed-lane remerging-lane left-exit"/>
    </vehicle>
    <vehicle id="L4-CV-224" type="L4-CV-Right-" depart="2464.00">
        <route edges="left-long-approaching preparation left-short-approaching bottom-exit"/>
    </vehicle>
    <vehicle id="L4-CV-225" type="L4-CV-" depart="2475.00">
        <route edges="top-approaching closed-lane remerging-lane left-exit"/>
    </vehicle>
    <vehicle id="L4-CV-226" type="L4-CV-Left-" depart="2486.00">
        <route edges="left-long-approaching preparation"/>
    </vehicle>
    <vehicle id="L4-CV-227" type="L4-CV-" depart="2497.00">
        <route edges="bottom-approaching top-exit"/>
    </vehicle>
    <vehicle id="L4-CV-231" type="L4-CV-" depart="2541.00">
        <route edges="top-approaching closed-lane remerging-lane left-exit"/>
    </vehicle>
    <vehicle id="L4-CV-232" type="L4-CV-" depart="2552.00">
        <route edges="right-approaching bottom-exit"/>
    </vehicle>
    <vehicle id="L4-CV-233" type="L4-CV-" depart="2563.00">
        <route edges="top-approaching closed-lane remerging-lane left-exit"/>
    </vehicle>
    <vehicle id="L4-CV-234" type="L4-CV-" depart="2574.00">
        <route edges="left-long-approaching preparation left-short-approaching right-exit"/>
    </vehicle>
    <vehicle id="L4-CV-235" type="L4-CV-" depart="2585.00">
        <route edges="bottom-approaching closed-lane remerging-lane left-exit"/>
    </vehicle>
    <vehicle id="L4-CV-236" type="L4-CV-" depart="2596.00">
        <route edges="top-approaching bottom-exit"/>
    </vehicle>
    <vehicle id="L4-CV-241" type="L4-CV-" depart="2651.00">
        <route edges="right-approaching closed-lane remerging-lane left-exit"/>
    </vehicle>
    <vehicle id="L4-CV-242" type="L4-CV-Left-" depart="2662.00">
        <route edges="left-long-approaching preparation"/>
    </vehicle>
    <vehicle id="L4-CV-244" type="L4-CV-" depart="2684.00">
        <route edges="top-approaching closed-lane remerging-lane left-exit"/>
    </vehicle>
    <vehicle id="L4-CV-245" type="L4-CV-" depart="2695.00">
        <route edges="top-approaching bottom-exit"/>
    </vehicle>
    <vehicle id="L4-CV-246" type="L4-CV-" depart="2706.00">
        <route edges="right-approaching top-exit"/>
    </vehicle>
    <vehicle id="L4-CV-247" type="L4-CV-Left-" depart="2717.00">
        <route edges="left-long-approaching preparation"/>
    </vehicle>
    <vehicle id="L4-CV-248" type="L4-CV-" depart="2728.00">
        <route edges="right-approaching closed-lane remerging-lane left-exit"/>
    </vehicle>
    <vehicle id="L4-CV-249" type="L4-CV-" depart="2739.00">
        <route edges="top-approaching closed-lane remerging-lane left-exit"/>
    </vehicle>
    <vehicle id="L4-CV-250" type="L4-CV-" depart="2750.00">
        <route edges="left-long-approaching preparation left-short-approaching right-exit"/>
    </vehicle>
    <vehicle id="L4-CV-251" type="L4-CV-Left-" depart="2761.00">
        <route edges="left-long-approaching preparation"/>
    </vehicle>
    <vehicle id="L4-CV-253" type="L4-CV-" depart="2783.00">
        <route edges="right-approaching top-exit"/>
    </vehicle>
    <vehicle id="L4-CV-256" type="L4-CV-" depart="2816.00">
        <route edges="right-approaching bottom-exit"/>
    </vehicle>
    <vehicle id="L4-CV-257" type="L4-CV-" depart="2827.00">
        <route edges="bottom-approaching top-exit"/>
    </vehicle>
    <vehicle id="L4-CV-258" type="L4-CV-" depart="2838.00">
        <route edges="bottom-approaching top-exit"/>
    </vehicle>
    <vehicle id="L4-CV-259" type="L4-CV-" depart="2849.00">
        <route edges="right-approaching top-exit"/>
    </vehicle>
    <vehicle id="L4-CV-260" type="L4-CV-" depart="2860.00">
        <route edges="bottom-approaching closed-lane remerging-lane left-exit"/>
    </vehicle>
    <vehicle id="L4-CV-261" type="L4-CV-" depart="2871.00">
        <route edges="top-approaching bottom-exit"/>
    </vehicle>
    <vehicle id="L4-CV-262" type="L4-CV-" depart="2882.00">
        <route edges="bottom-approaching closed-lane remerging-lane left-exit"/>
    </vehicle>
    <vehicle id="L4-CV-264" type="L4-CV-" depart="2904.00">
        <route edges="right-approaching bottom-exit"/>
    </vehicle>
    <vehicle id="L4-CV-265" type="L4-CV-" depart="2915.00">
        <route edges="top-approaching right-exit"/>
    </vehicle>
    <vehicle id="L4-CV-266" type="L4-CV-" depart="2926.00">
        <route edges="bottom-approaching top-exit"/>
    </vehicle>
    <vehicle id="L4-CV-267" type="L4-CV-" depart="2937.00">
        <route edges="bottom-approaching closed-lane remerging-lane left-exit"/>
    </vehicle>
    <vehicle id="L4-CV-268" type="L4-CV-" depart="2948.00">
        <route edges="right-approaching bottom-exit"/>
    </vehicle>
    <vehicle id="L4-CV-269" type="L4-CV-Right-" depart="2959.00">