<?xml version="1.0" ?><!-- generated on 04/06/21 01:05:01 by Eclipse SUMO duarouter Version 1.8.0
<configuration xmlns:xsi="http://www.w3.org/2001/XMLSchema-instance" xsi:noNamespaceSchemaLocation="http://sumo.dlr.de/xsd/duarouterConfiguration.xsd">

    <input>
        <net-file value="Collision/CollisionIntersection.net.xml"/>
        <route-files value="trips.trips.xml"/>
    </input>

    <output>
        <output-file value="Collision/RealTMSPenetration1/Route-Files/L0-HDV-Route.rou.xml"/>
        <alternatives-output value="Collision/RealTMSPenetration1/Route-Files/L0-HDV-Route.rou.alt.xml"/>
    </output>

    <time>
        <begin value="120"/>
        <end value="3600"/>
    </time>

    <report>
        <no-warnings value="true"/>
        <ignore-errors value="true"/>
        <no-step-log value="true"/>
    </report>

</configuration>
--><routes xmlns:xsi="http://www.w3.org/2001/XMLSchema-instance" xsi:noNamespaceSchemaLocation="http://sumo.dlr.de/xsd/routes_file.xsd">
    <vehicle id="L0-HDV-2" type="L0-HDV-" depart="123.52">
        <route edges="top-approaching right-exit"/>
    </vehicle>
    <vehicle id="L0-HDV-3" type="L0-HDV-" depart="125.28">
        <route edges="right-approaching left-exit-blockage left-exit"/>
    </vehicle>
    <vehicle id="L0-HDV-5" type="L0-HDV-" depart="128.80">
        <route edges="right-approaching bottom-exit"/>
    </vehicle>
    <vehicle id="L0-HDV-7" type="L0-HDV-" depart="132.32">
        <route edges="right-approaching top-exit"/>
    </vehicle>
    <vehicle id="L0-HDV-8" type="L0-HDV-" depart="134.08">
        <route edges="top-approaching right-exit"/>
    </vehicle>
    <vehicle id="L0-HDV-12" type="L0-HDV-Left-" depart="141.12">
        <route edges="left-long-approaching left-short-approaching top-exit"/>
    </vehicle>
    <vehicle id="L0-HDV-15" type="L0-HDV-" depart="146.40">
        <route edges="left-long-approaching left-short-approaching bottom-exit"/>
    </vehicle>
    <vehicle id="L0-HDV-16" type="L0-HDV-" depart="148.16">
        <route edges="right-approaching top-exit"/>
    </vehicle>
    <vehicle id="L0-HDV-17" type="L0-HDV-" depart="149.92">
        <route edges="right-approaching bottom-exit"/>
    </vehicle>
    <vehicle id="L0-HDV-19" type="L0-HDV-" depart="153.44">
        <route edges="right-approaching top-exit"/>
    </vehicle>
    <vehicle id="L0-HDV-21" type="L0-HDV-Left-" depart="156.96">
        <route edges="left-long-approaching left-short-approaching top-exit"/>
    </vehicle>
    <vehicle id="L0-HDV-22" type="L0-HDV-" depart="158.72">
        <route edges="top-approaching bottom-exit"/>
    </vehicle>
    <vehicle id="L0-HDV-23" type="L0-HDV-" depart="160.48">
        <route edges="top-approaching right-exit"/>
    </vehicle>
    <vehicle id="L0-HDV-24" type="L0-HDV-Straight-" depart="162.24">
        <route edges="left-long-approaching left-short-approaching right-exit"/>
    </vehicle>
    <vehicle id="L0-HDV-25" type="L0-HDV-Left-" depart="164.00">
        <route edges="left-long-approaching left-short-approaching top-exit"/>
    </vehicle>
    <vehicle id="L0-HDV-26" type="L0-HDV-Left-" depart="165.76">
        <route edges="left-long-approaching left-short-approaching top-exit"/>
    </vehicle>
    <vehicle id="L0-HDV-27" type="L0-HDV-Left-" depart="167.52">
        <route edges="left-long-approaching left-short-approaching top-exit"/>
    </vehicle>
    <vehicle id="L0-HDV-28" type="L0-HDV-" depart="169.28">
        <route edges="top-approaching left-exit-blockage left-exit"/>
    </vehicle>
    <vehicle id="L0-HDV-29" type="L0-HDV-" depart="171.04">
        <route edges="right-approaching top-exit"/>
    </vehicle>
    <vehicle id="L0-HDV-30" type="L0-HDV-" depart="172.80">
        <route edges="right-approaching left-exit-blockage left-exit"/>
    </vehicle>
    <vehicle id="L0-HDV-31" type="L0-HDV-" depart="174.56">
        <route edges="bottom-approaching left-exit-blockage left-exit"/>
    </vehicle>
    <vehicle id="L0-HDV-32" type="L0-HDV-" depart="176.32">
        <route edges="right-approaching bottom-exit"/>
    </vehicle>
    <vehicle id="L0-HDV-33" type="L0-HDV-" depart="178.08">
        <route edges="top-approaching left-exit-blockage left-exit"/>
    </vehicle>
    <vehicle id="L0-HDV-34" type="L0-HDV-" depart="179.84">
        <route edges="top-approaching left-exit-blockage left-exit"/>
    </vehicle>
    <vehicle id="L0-HDV-35" type="L0-HDV-" depart="181.60">
        <route edges="top-approaching right-exit"/>
    </vehicle>
    <vehicle id="L0-HDV-36" type="L0-HDV-Straight-" depart="183.36">
        <route edges="left-long-approaching left-short-approaching right-exit"/>
    </vehicle>
    <vehicle id="L0-HDV-38" type="L0-HDV-" depart="186.88">
        <route edges="left-long-approaching left-short-approaching bottom-exit"/>
    </vehicle>
    <vehicle id="L0-HDV-39" type="L0-HDV-" depart="188.64">
        <route edges="right-approaching top-exit"/>
    </vehicle>
    <vehicle id="L0-HDV-40" type="L0-HDV-" depart="190.40">
        <route edges="right-approaching bottom-exit"/>
    </vehicle>
    <vehicle id="L0-HDV-41" type="L0-HDV-" depart="192.16">
        <route edges="top-approaching right-exit"/>
    </vehicle>
    <vehicle id="L0-HDV-42" type="L0-HDV-" depart="193.92">
        <route edges="top-approaching bottom-exit"/>
    </vehicle>
    <vehicle id="L0-HDV-43" type="L0-HDV-" depart="195.68">
        <route edges="right-approaching bottom-exit"/>
    </vehicle>
    <vehicle id="L0-HDV-44" type="L0-HDV-" depart="197.44">
        <route edges="right-approaching left-exit-blockage left-exit"/>
    </vehicle>
    <vehicle id="L0-HDV-45" type="L0-HDV-" depart="199.20">
        <route edges="bottom-approaching top-exit"/>
    </vehicle>
    <vehicle id="L0-HDV-46" type="L0-HDV-" depart="200.96">
        <route edges="bottom-approaching right-exit"/>
    </vehicle>
    <vehicle id="L0-HDV-47" type="L0-HDV-" depart="202.72">
        <route edges="top-approaching bottom-exit"/>
    </vehicle>
    <vehicle id="L0-HDV-48" type="L0-HDV-" depart="204.48">
        <route edges="bottom-approaching top-exit"/>
    </vehicle>
    <vehicle id="L0-HDV-49" type="L0-HDV-Straight-" depart="206.24">
        <route edges="left-long-approaching left-short-approaching right-exit"/>
    </vehicle>
    <vehicle id="L0-HDV-50" type="L0-HDV-" depart="208.00">
        <route edges="bottom-approaching left-exit-blockage left-exit"/>
    </vehicle>
    <vehicle id="L0-HDV-51" type="L0-HDV-" depart="209.76">
        <route edges="bottom-approaching right-exit"/>
    </vehicle>
    <vehicle id="L0-HDV-52" type="L0-HDV-" depart="211.52">
        <route edges="bottom-approaching top-exit"/>
    </vehicle>
    <vehicle id="L0-HDV-53" type="L0-HDV-" depart="213.28">
        <route edges="bottom-approaching right-exit"/>
    </vehicle>
    <vehicle id="L0-HDV-54" type="L0-HDV-" depart="215.04">
        <route edges="bottom-approaching left-exit-blockage left-exit"/>
    </vehicle>
    <vehicle id="L0-HDV-55" type="L0-HDV-" depart="216.80">
        <route edges="top-approaching bottom-exit"/>
    </vehicle>
    <vehicle id="L0-HDV-56" type="L0-HDV-" depart="218.56">
        <route edges="bottom-approaching right-exit"/>
    </vehicle>
    <vehicle id="L0-HDV-57" type="L0-HDV-" depart="220.32">
        <route edges="left-long-approaching left-short-approaching bottom-exit"/>
    </vehicle>
    <vehicle id="L0-HDV-58" type="L0-HDV-" depart="222.08">
        <route edges="top-approaching bottom-exit"/>
    </vehicle>
    <vehicle id="L0-HDV-59" type="L0-HDV-" depart="223.84">
        <route edges="bottom-approaching left-exit-blockage left-exit"/>
    </vehicle>
    <vehicle id="L0-HDV-61" type="L0-HDV-" depart="227.36">
        <route edges="bottom-approaching left-exit-blockage left-exit"/>
    </vehicle>
    <vehicle id="L0-HDV-62" type="L0-HDV-" depart="229.12">
        <route edges="bottom-approaching left-exit-blockage left-exit"/>
    </vehicle>
    <vehicle id="L0-HDV-63" type="L0-HDV-" depart="230.88">
        <route edges="top-approaching right-exit"/>
    </vehicle>
    <vehicle id="L0-HDV-65" type="L0-HDV-" depart="234.40">
        <route edges="top-approaching right-exit"/>
    </vehicle>
    <vehicle id="L0-HDV-66" type="L0-HDV-" depart="236.16">
        <route edges="left-long-approaching left-short-approaching bottom-exit"/>
    </vehicle>
    <vehicle id="L0-HDV-67" type="L0-HDV-" depart="237.92">
        <route edges="right-approaching left-exit-blockage left-exit"/>
    </vehicle>
    <vehicle id="L0-HDV-68" type="L0-HDV-" depart="239.68">
        <route edges="bottom-approaching left-exit-blockage left-exit"/>
    </vehicle>
    <vehicle id="L0-HDV-69" type="L0-HDV-" depart="241.44">
        <route edges="top-approaching bottom-exit"/>
    </vehicle>
    <vehicle id="L0-HDV-70" type="L0-HDV-" depart="243.20">
        <route edges="right-approaching left-exit-blockage left-exit"/>
    </vehicle>
    <vehicle id="L0-HDV-71" type="L0-HDV-" depart="244.96">
        <route edges="right-approaching bottom-exit"/>
    </vehicle>
    <vehicle id="L0-HDV-72" type="L0-HDV-" depart="246.72">
        <route edges="top-approaching left-exit-blockage left-exit"/>
    </vehicle>
    <vehicle id="L0-HDV-73" type="L0-HDV-" depart="248.48">
        <route edges="right-approaching left-exit-blockage left-exit"/>
    </vehicle>
    <vehicle id="L0-HDV-74" type="L0-HDV-" depart="250.24">
        <route edges="bottom-approaching right-exit"/>
    </vehicle>
    <vehicle id="L0-HDV-77" type="L0-HDV-" depart="255.52">
        <route edges="bottom-approaching right-exit"/>
    </vehicle>
    <vehicle id="L0-HDV-78" type="L0-HDV-" depart="257.28">
        <route edges="right-approaching top-exit"/>
    </vehicle>
    <vehicle id="L0-HDV-80" type="L0-HDV-" depart="260.80">
        <route edges="bottom-approaching left-exit-blockage left-exit"/>
    </vehicle>
    <vehicle id="L0-HDV-82" type="L0-HDV-" depart="264.32">
        <route edges="right-approaching top-exit"/>
    </vehicle>
    <vehicle id="L0-HDV-83" type="L0-HDV-" depart="266.08">
        <route edges="right-approaching left-exit-blockage left-exit"/>
    </vehicle>
    <vehicle id="L0-HDV-84" type="L0-HDV-Straight-" depart="267.84">
        <route edges="left-long-approaching left-short-approaching right-exit"/>
    </vehicle>
    <vehicle id="L0-HDV-86" type="L0-HDV-" depart="271.36">
        <route edges="left-long-approaching left-short-approaching bottom-exit"/>
    </vehicle>
    <vehicle id="L0-HDV-87" type="L0-HDV-" depart="273.12">
        <route edges="right-approaching bottom-exit"/>
    </vehicle>
    <vehicle id="L0-HDV-90" type="L0-HDV-" depart="278.40">
        <route edges="right-approaching left-exit-blockage left-exit"/>
    </vehicle>
    <vehicle id="L0-HDV-91" type="L0-HDV-Straight-" depart="280.16">
        <route edges="left-long-approaching left-short-approaching right-exit"/>
    </vehicle>
    <vehicle id="L0-HDV-92" type="L0-HDV-" depart="281.92">
        <route edges="bottom-approaching top-exit"/>
    </vehicle>
    <vehicle id="L0-HDV-93" type="L0-HDV-" depart="283.68">
        <route edges="top-approaching right-exit"/>
    </vehicle>
    <vehicle id="L0-HDV-94" type="L0-HDV-Straight-" depart="285.44">
        <route edges="left-long-approaching left-short-approaching right-exit"/>
    </vehicle>
    <vehicle id="L0-HDV-95" type="L0-HDV-" depart="287.20">
        <route edges="right-approaching bottom-exit"/>
    </vehicle>
    <vehicle id="L0-HDV-96" type="L0-HDV-Straight-" depart="288.96">
        <route edges="left-long-approaching left-short-approaching right-exit"/>
    </vehicle>
    <vehicle id="L0-HDV-98" type="L0-HDV-" depart="292.48">
        <route edges="top-approaching left-exit-blockage left-exit"/>
    </vehicle>
    <vehicle id="L0-HDV-99" type="L0-HDV-" depart="294.24">
        <route edges="right-approaching top-exit"/>
    </vehicle>
    <vehicle id="L0-HDV-100" type="L0-HDV-" depart="296.00">
        <route edges="right-approaching left-exit-blockage left-exit"/>
    </vehicle>
    <vehicle id="L0-HDV-101" type="L0-HDV-" depart="297.76">
        <route edges="top-approaching left-exit-blockage left-exit"/>
    </vehicle>
    <vehicle id="L0-HDV-102" type="L0-HDV-" depart="299.52">
        <route edges="bottom-approaching right-exit"/>
    </vehicle>
    <vehicle id="L0-HDV-103" type="L0-HDV-" depart="301.28">
        <route edges="bottom-approaching left-exit-blockage left-exit"/>
    </vehicle>
    <vehicle id="L0-HDV-104" type="L0-HDV-" depart="303.04">
        <route edges="top-approaching right-exit"/>
    </vehicle>
    <vehicle id="L0-HDV-105" type="L0-HDV-" depart="304.80">
        <route edges="bottom-approaching left-exit-blockage left-exit"/>
    </vehicle>
    <vehicle id="L0-HDV-107" type="L0-HDV-" depart="308.32">
        <route edges="bottom-approaching right-exit"/>
    </vehicle>
    <vehicle id="L0-HDV-108" type="L0-HDV-" depart="310.08">
        <route edges="bottom-approaching left-exit-blockage left-exit"/>
    </vehicle>
    <vehicle id="L0-HDV-109" type="L0-HDV-Left-" depart="311.84">
        <route edges="left-long-approaching left-short-approaching top-exit"/>
    </vehicle>
    <vehicle id="L0-HDV-110" type="L0-HDV-" depart="313.60">
        <route edges="bottom-approaching top-exit"/>
    </vehicle>
    <vehicle id="L0-HDV-111" type="L0-HDV-" depart="315.36">
        <route edges="bottom-approaching right-exit"/>
    </vehicle>
    <vehicle id="L0-HDV-113" type="L0-HDV-" depart="318.88">
        <route edges="top-approaching left-exit-blockage left-exit"/>
    </vehicle>
    <vehicle id="L0-HDV-115" type="L0-HDV-" depart="322.40">
        <route edges="bottom-approaching top-exit"/>
    </vehicle>
    <vehicle id="L0-HDV-116" type="L0-HDV-" depart="324.16">
        <route edges="right-approaching top-exit"/>
    </vehicle>
    <vehicle id="L0-HDV-117" type="L0-HDV-" depart="325.92">
        <route edges="right-approaching bottom-exit"/>
    </vehicle>
    <vehicle id="L0-HDV-118" type="L0-HDV-" depart="327.68">
        <route edges="right-approaching top-exit"/>
    </vehicle>
    <vehicle id="L0-HDV-119" type="L0-HDV-" depart="329.44">
        <route edges="right-approaching left-exit-blockage left-exit"/>
    </vehicle>
    <vehicle id="L0-HDV-121" type="L0-HDV-" depart="332.96">
        <route edges="top-approaching left-exit-blockage left-exit"/>
    </vehicle>
    <vehicle id="L0-HDV-122" type="L0-HDV-" depart="334.72">
        <route edges="right-approaching left-exit-blockage left-exit"/>
    </vehicle>
    <vehicle id="L0-HDV-125" type="L0-HDV-" depart="340.00">
        <route edges="left-long-approaching left-short-approaching bottom-exit"/>
    </vehicle>
    <vehicle id="L0-HDV-127" type="L0-HDV-Straight-" depart="343.52">
        <route edges="left-long-approaching left-short-approaching right-exit"/>
    </vehicle>
    <vehicle id="L0-HDV-128" type="L0-HDV-" depart="345.28">
        <route edges="top-approaching right-exit"/>
    </vehicle>
    <vehicle id="L0-HDV-129" type="L0-HDV-" depart="347.04">
        <route edges="top-approaching bottom-exit"/>
    </vehicle>
    <vehicle id="L0-HDV-130" type="L0-HDV-Left-" depart="348.80">
        <route edges="left-long-approaching left-short-approaching top-exit"/>
    </vehicle>
    <vehicle id="L0-HDV-131" type="L0-HDV-" depart="350.56">
        <route edges="bottom-approaching left-exit-blockage left-exit"/>
    </vehicle>
    <vehicle id="L0-HDV-134" type="L0-HDV-" depart="355.84">
        <route edges="right-approaching bottom-exit"/>
    </vehicle>
    <vehicle id="L0-HDV-135" type="L0-HDV-" depart="357.60">
        <route edges="left-long-approaching left-short-approaching bottom-exit"/>
    </vehicle>
    <vehicle id="L0-HDV-137" type="L0-HDV-Straight-" depart="361.12">
        <route edges="left-long-approaching left-short-approaching right-exit"/>
    </vehicle>
    <vehicle id="L0-HDV-138" type="L0-HDV-" depart="362.88">
        <route edges="bottom-approaching right-exit"/>
    </vehicle>
    <vehicle id="L0-HDV-140" type="L0-HDV-" depart="366.40">
        <route edges="bottom-approaching right-exit"/>
    </vehicle>
    <vehicle id="L0-HDV-141" type="L0-HDV-" depart="368.16">
        <route edges="right-approaching left-exit-blockage left-exit"/>
    </vehicle>
    <vehicle id="L0-HDV-142" type="L0-HDV-" depart="369.92">
        <route edges="top-approaching left-exit-blockage left-exit"/>
    </vehicle>
    <vehicle id="L0-HDV-143" type="L0-HDV-" depart="371.68">
        <route edges="right-approaching left-exit-blockage left-exit"/>
    </vehicle>
    <vehicle id="L0-HDV-145" type="L0-HDV-" depart="375.20">
        <route edges="right-approaching bottom-exit"/>
    </vehicle>
    <vehicle id="L0-HDV-146" type="L0-HDV-" depart="376.96">
        <route edges="left-long-approaching left-short-approaching bottom-exit"/>
    </vehicle>
    <vehicle id="L0-HDV-147" type="L0-HDV-" depart="378.72">
        <route edges="right-approaching top-exit"/>
    </vehicle>
    <vehicle id="L0-HDV-148" type="L0-HDV-" depart="380.48">
        <route edges="bottom-approaching right-exit"/>
    </vehicle>
    <vehicle id="L0-HDV-150" type="L0-HDV-" depart="384.00">
        <route edges="right-approaching top-exit"/>
    </vehicle>
    <vehicle id="L0-HDV-151" type="L0-HDV-" depart="385.76">
        <route edges="right-approaching left-exit-blockage left-exit"/>
    </vehicle>
    <vehicle id="L0-HDV-152" type="L0-HDV-" depart="387.52">
        <route edges="top-approaching left-exit-blockage left-exit"/>
    </vehicle>
    <vehicle id="L0-HDV-155" type="L0-HDV-" depart="392.80">
        <route edges="bottom-approaching right-exit"/>
    </vehicle>
    <vehicle id="L0-HDV-156" type="L0-HDV-Straight-" depart="394.56">
        <route edges="left-long-approaching left-short-approaching right-exit"/>
    </vehicle>
    <vehicle id="L0-HDV-157" type="L0-HDV-" depart="396.32">
        <route edges="top-approaching right-exit"/>
    </vehicle>
    <vehicle id="L0-HDV-158" type="L0-HDV-" depart="398.08">
        <route edges="bottom-approaching left-exit-blockage left-exit"/>
    </vehicle>
    <vehicle id="L0-HDV-159" type="L0-HDV-" depart="399.84">
        <route edges="right-approaching top-exit"/>
    </vehicle>
    <vehicle id="L0-HDV-160" type="L0-HDV-" depart="401.60">
        <route edges="right-approaching top-exit"/>
    </vehicle>
    <vehicle id="L0-HDV-161" type="L0-HDV-" depart="403.36">
        <route edges="bottom-approaching top-exit"/>
    </vehicle>
    <vehicle id="L0-HDV-164" type="L0-HDV-" depart="408.64">
        <route edges="bottom-approaching top-exit"/>
    </vehicle>
    <vehicle id="L0-HDV-165" type="L0-HDV-" depart="410.40">
        <route edges="top-approaching bottom-exit"/>
    </vehicle>
    <vehicle id="L0-HDV-167" type="L0-HDV-" depart="413.92">
        <route edges="bottom-approaching top-exit"/>
    </vehicle>
    <vehicle id="L0-HDV-168" type="L0-HDV-" depart="415.68">
        <route edges="bottom-approaching right-exit"/>
    </vehicle>
    <vehicle id="L0-HDV-170" type="L0-HDV-" depart="419.20">
        <route edges="right-approaching left-exit-blockage left-exit"/>
    </vehicle>
    <vehicle id="L0-HDV-171" type="L0-HDV-" depart="420.96">
        <route edges="bottom-approaching top-exit"/>
    </vehicle>
    <vehicle id="L0-HDV-173" type="L0-HDV-Left-" depart="424.48">
        <route edges="left-long-approaching left-short-approaching top-exit"/>
    </vehicle>
    <vehicle id="L0-HDV-174" type="L0-HDV-" depart="426.24">
        <route edges="right-approaching top-exit"/>
    </vehicle>
    <vehicle id="L0-HDV-175" type="L0-HDV-Straight-" depart="428.00">
        <route edges="left-long-approaching left-short-approaching right-exit"/>
    </vehicle>
    <vehicle id="L0-HDV-177" type="L0-HDV-" depart="431.52">
        <route edges="left-long-approaching left-short-approaching bottom-exit"/>
    </vehicle>
    <vehicle id="L0-HDV-178" type="L0-HDV-" depart="433.28">
        <route edges="bottom-approaching top-exit"/>
    </vehicle>
    <vehicle id="L0-HDV-179" type="L0-HDV-" depart="435.04">
        <route edges="bottom-approaching right-exit"/>
    </vehicle>
    <vehicle id="L0-HDV-180" type="L0-HDV-" depart="436.80">
        <route edges="top-approaching left-exit-blockage left-exit"/>
    </vehicle>
    <vehicle id="L0-HDV-181" type="L0-HDV-" depart="438.56">
        <route edges="right-approaching top-exit"/>
    </vehicle>
    <vehicle id="L0-HDV-182" type="L0-HDV-" depart="440.32">
        <route edges="top-approaching bottom-exit"/>
    </vehicle>
    <vehicle id="L0-HDV-183" type="L0-HDV-" depart="442.08">
        <route edges="bottom-approaching left-exit-blockage left-exit"/>
    </vehicle>
    <vehicle id="L0-HDV-185" type="L0-HDV-" depart="445.60">
        <route edges="bottom-approaching right-exit"/>
    </vehicle>
    <vehicle id="L0-HDV-186" type="L0-HDV-" depart="447.36">
        <route edges="top-approaching left-exit-blockage left-exit"/>
    </vehicle>
    <vehicle id="L0-HDV-187" type="L0-HDV-" depart="449.12">
        <route edges="right-approaching left-exit-blockage left-exit"/>
    </vehicle>
    <vehicle id="L0-HDV-188" type="L0-HDV-Left-" depart="450.88">
        <route edges="left-long-approaching left-short-approaching top-exit"/>
    </vehicle>
    <vehicle id="L0-HDV-189" type="L0-HDV-Straight-" depart="452.64">
        <route edges="left-long-approaching left-short-approaching right-exit"/>
    </vehicle>
    <vehicle id="L0-HDV-190" type="L0-HDV-Straight-" depart="454.40">
        <route edges="left-long-approaching left-short-approaching right-exit"/>
    </vehicle>
    <vehicle id="L0-HDV-191" type="L0-HDV-" depart="456.16">
        <route edges="top-approaching bottom-exit"/>
    </vehicle>
    <vehicle id="L0-HDV-192" type="L0-HDV-" depart="457.92">
        <route edges="top-approaching left-exit-blockage left-exit"/>
    </vehicle>
    <vehicle id="L0-HDV-193" type="L0-HDV-" depart="459.68">
        <route edges="right-approaching top-exit"/>
    </vehicle>
    <vehicle id="L0-HDV-194" type="L0-HDV-" depart="461.44">
        <route edges="right-approaching left-exit-blockage left-exit"/>
    </vehicle>
    <vehicle id="L0-HDV-195" type="L0-HDV-" depart="463.20">
        <route edges="top-approaching bottom-exit"/>
    </vehicle>
    <vehicle id="L0-HDV-196" type="L0-HDV-" depart="464.96">
        <route edges="right-approaching left-exit-blockage left-exit"/>
    </vehicle>
    <vehicle id="L0-HDV-197" type="L0-HDV-" depart="466.72">
        <route edges="right-approaching top-exit"/>
    </vehicle>
    <vehicle id="L0-HDV-198" type="L0-HDV-" depart="468.48">
        <route edges="top-approaching right-exit"/>
    </vehicle>
    <vehicle id="L0-HDV-199" type="L0-HDV-" depart="470.24">
        <route edges="left-long-approaching left-short-approaching bottom-exit"/>
    </vehicle>
    <vehicle id="L0-HDV-200" type="L0-HDV-" depart="472.00">
        <route edges="left-long-approaching left-short-approaching bottom-exit"/>
    </vehicle>
    <vehicle id="L0-HDV-201" type="L0-HDV-Left-" depart="473.76">
        <route edges="left-long-approaching left-short-approaching top-exit"/>
    </vehicle>
    <vehicle id="L0-HDV-202" type="L0-HDV-" depart="475.52">
        <route edges="bottom-approaching top-exit"/>
    </vehicle>
    <vehicle id="L0-HDV-204" type="L0-HDV-" depart="479.04">
        <route edges="left-long-approaching left-short-approaching bottom-exit"/>
    </vehicle>
    <vehicle id="L0-HDV-205" type="L0-HDV-" depart="480.80">
        <route edges="left-long-approaching left-short-approaching bottom-exit"/>
    </vehicle>
    <vehicle id="L0-HDV-208" type="L0-HDV-Straight-" depart="486.08">
        <route edges="left-long-approaching left-short-approaching right-exit"/>
    </vehicle>
    <vehicle id="L0-HDV-209" type="L0-HDV-" depart="487.84">
        <route edges="top-approaching left-exit-blockage left-exit"/>
    </vehicle>
    <vehicle id="L0-HDV-211" type="L0-HDV-" depart="491.36">
        <route edges="bottom-approaching right-exit"/>
    </vehicle>
    <vehicle id="L0-HDV-213" type="L0-HDV-" depart="494.88">
        <route edges="top-approaching bottom-exit"/>
    </vehicle>
    <vehicle id="L0-HDV-214" type="L0-HDV-" depart="496.64">
        <route edges="top-approaching right-exit"/>
    </vehicle>
    <vehicle id="L0-HDV-215" type="L0-HDV-Left-" depart="498.40">
        <route edges="left-long-approaching left-short-approaching top-exit"/>
    </vehicle>
    <vehicle id="L0-HDV-216" type="L0-HDV-Left-" depart="500.16">
        <route edges="left-long-approaching left-short-approaching top-exit"/>
    </vehicle>
    <vehicle id="L0-HDV-218" type="L0-HDV-" depart="503.68">
        <route edges="right-approaching top-exit"/>
    </vehicle>
    <vehicle id="L0-HDV-222" type="L0-HDV-Straight-" depart="510.72">
        <route edges="left-long-approaching left-short-approaching right-exit"/>
    </vehicle>
    <vehicle id="L0-HDV-223" type="L0-HDV-" depart="512.48">
        <route edges="right-approaching left-exit-blockage left-exit"/>
    </vehicle>
    <vehicle id="L0-HDV-224" type="L0-HDV-" depart="514.24">
        <route edges="left-long-approaching left-short-approaching bottom-exit"/>
    </vehicle>
    <vehicle id="L0-HDV-225" type="L0-HDV-" depart="516.00">
        <route edges="top-approaching left-exit-blockage left-exit"/>
    </vehicle>
    <vehicle id="L0-HDV-226" type="L0-HDV-Left-" depart="517.76">
        <route edges="left-long-approaching left-short-approaching top-exit"/>
    </vehicle>
    <vehicle id="L0-HDV-227" type="L0-HDV-" depart="519.52">
        <route edges="bottom-approaching top-exit"/>
    </vehicle>
    <vehicle id="L0-HDV-231" type="L0-HDV-" depart="526.56">
        <route edges="top-approaching left-exit-blockage left-exit"/>
    </vehicle>
    <vehicle id="L0-HDV-232" type="L0-HDV-" depart="528.32">
        <route edges="right-approaching bottom-exit"/>
    </vehicle>
    <vehicle id="L0-HDV-233" type="L0-HDV-" depart="530.08">
        <route edges="top-approaching left-exit-blockage left-exit"/>
    </vehicle>
    <vehicle id="L0-HDV-234" type="L0-HDV-Straight-" depart="531.84">
        <route edges="left-long-approaching left-short-approaching right-exit"/>
    </vehicle>
    <vehicle id="L0-HDV-235" type="L0-HDV-" depart="533.60">
        <route edges="bottom-approaching left-exit-blockage left-exit"/>
    </vehicle>
    <vehicle id="L0-HDV-236" type="L0-HDV-" depart="535.36">
        <route edges="top-approaching bottom-exit"/>
    </vehicle>
    <vehicle id="L0-HDV-238" type="L0-HDV-" depart="538.88">
        <route edges="top-approaching left-exit-blockage left-exit"/>
    </vehicle>
    <vehicle id="L0-HDV-239" type="L0-HDV-" depart="540.64">
        <route edges="top-approaching left-exit-blockage left-exit"/>
    </vehicle>
    <vehicle id="L0-HDV-241" type="L0-HDV-" depart="544.16">
        <route edges="right-approaching left-exit-blockage left-exit"/>
    </vehicle>
    <vehicle id="L0-HDV-242" type="L0-HDV-Left-" depart="545.92">
        <route edges="left-long-approaching left-short-approaching top-exit"/>
    </vehicle>
    <vehicle id="L0-HDV-244" type="L0-HDV-" depart="549.44">
        <route edges="top-approaching left-exit-blockage left-exit"/>
    </vehicle>
    <vehicle id="L0-HDV-245" type="L0-HDV-" depart="551.20">
        <route edges="top-approaching bottom-exit"/>
    </vehicle>
    <vehicle id="L0-HDV-246" type="L0-HDV-" depart="552.96">
        <route edges="right-approaching top-exit"/>
    </vehicle>
    <vehicle id="L0-HDV-247" type="L0-HDV-Left-" depart="554.72">
        <route edges="left-long-approaching left-short-approaching top-exit"/>
    </vehicle>
    <vehicle id="L0-HDV-248" type="L0-HDV-" depart="556.48">
        <route edges="right-approaching left-exit-blockage left-exit"/>
    </vehicle>
    <vehicle id="L0-HDV-249" type="L0-HDV-" depart="558.24">
        <route edges="top-approaching left-exit-blockage left-exit"/>
    </vehicle>
    <vehicle id="L0-HDV-250" type="L0-HDV-Straight-" depart="560.00">
        <route edges="left-long-approaching left-short-approaching right-exit"/>
    </vehicle>
    <vehicle id="L0-HDV-251" type="L0-HDV-Left-" depart="561.76">
        <route edges="left-long-approaching left-short-approaching top-exit"/>
    </vehicle>
    <vehicle id="L0-HDV-253" type="L0-HDV-" depart="565.28">
        <route edges="right-approaching top-exit"/>
    </vehicle>
    <vehicle id="L0-HDV-256" type="L0-HDV-" depart="570.56">
        <route edges="right-approaching bottom-exit"/>
    </vehicle>
    <vehicle id="L0-HDV-257" type="L0-HDV-" depart="572.32">
        <route edges="bottom-approaching top-exit"/>
    </vehicle>
    <vehicle id="L0-HDV-258" type="L0-HDV-" depart="574.08">
        <route edges="bottom-approaching top-exit"/>
    </vehicle>
    <vehicle id="L0-HDV-259" type="L0-HDV-" depart="575.84">
        <route edges="right-approaching top-exit"/>
    </vehicle>
    <vehicle id="L0-HDV-260" type="L0-HDV-" depart="577.60">
        <route edges="bottom-approaching left-exit-blockage left-exit"/>
    </vehicle>
    <vehicle id="L0-HDV-261" type="L0-HDV-" depart="579.36">
        <route edges="top-approaching bottom-exit"/>
    </vehicle>
    <vehicle id="L0-HDV-262" type="L0-HDV-" depart="581.12">
        <route edges="bottom-approaching left-exit-blockage left-exit"/>
    </vehicle>
    <vehicle id="L0-HDV-264" type="L0-HDV-" depart="584.64">
        <route edges="right-approaching bottom-exit"/>
    </vehicle>
    <vehicle id="L0-HDV-265" type="L0-HDV-" depart="586.40">
        <route edges="top-approaching right-exit"/>
    </vehicle>
    <vehicle id="L0-HDV-266" type="L0-HDV-" depart="588.16">
        <route edges="bottom-approaching top-exit"/>
    </vehicle>
    <vehicle id="L0-HDV-267" type="L0-HDV-" depart="589.92">