<?xml version="1.0" ?><!-- generated on 03/31/21 21:08:45 by Eclipse SUMO duarouter Version 1.8.0
<configuration xmlns:xsi="http://www.w3.org/2001/XMLSchema-instance" xsi:noNamespaceSchemaLocation="http://sumo.dlr.de/xsd/duarouterConfiguration.xsd">

    <input>
        <net-file value="Collision/CollisionIntersection.net.xml"/>
        <route-files value="trips.trips.xml"/>
    </input>

    <output>
        <output-file value="Collision/RealTMSPenetration1/Route-Files/L2-CV-Route.rou.xml"/>
        <alternatives-output value="Collision/RealTMSPenetration1/Route-Files/L2-CV-Route.rou.alt.xml"/>
    </output>

    <time>
        <begin value="120"/>
        <end value="3600"/>
    </time>

    <report>
        <no-warnings value="true"/>
        <ignore-errors value="true"/>
        <no-step-log value="true"/>
    </report>

</configuration>
--><routes xmlns:xsi="http://www.w3.org/2001/XMLSchema-instance" xsi:noNamespaceSchemaLocation="http://sumo.dlr.de/xsd/routes_file.xsd">
    <vehicle id="L2-CV-0" type="L2-CV-" depart="120.00">
        <route edges="bottom-approaching top-exit"/>
    </vehicle>
    <vehicle id="L2-CV-1" type="L2-CV-" depart="128.40">
        <route edges="top-approaching left-exit-blockage left-exit"/>
    </vehicle>
    <vehicle id="L2-CV-3" type="L2-CV-" depart="145.20">
        <route edges="right-approaching top-exit"/>
    </vehicle>
    <vehicle id="L2-CV-5" type="L2-CV-" depart="162.00">
        <route edges="top-approaching left-exit-blockage left-exit"/>
    </vehicle>
    <vehicle id="L2-CV-6" type="L2-CV-" depart="170.40">
        <route edges="top-approaching bottom-exit"/>
    </vehicle>
    <vehicle id="L2-CV-7" type="L2-CV-" depart="178.80">
        <route edges="left-long-approaching left-short-approaching right-exit"/>
    </vehicle>
    <vehicle id="L2-CV-8" type="L2-CV-" depart="187.20">
        <route edges="bottom-approaching top-exit"/>
    </vehicle>
    <vehicle id="L2-CV-9" type="L2-CV-" depart="195.60">
        <route edges="top-approaching bottom-exit"/>
    </vehicle>
    <vehicle id="L2-CV-10" type="L2-CV-" depart="204.00">
        <route edges="bottom-approaching right-exit"/>
    </vehicle>
    <vehicle id="L2-CV-11" type="L2-CV-" depart="212.40">
        <route edges="top-approaching left-exit-blockage left-exit"/>
    </vehicle>
    <vehicle id="L2-CV-12" type="L2-CV-" depart="220.80">
        <route edges="bottom-approaching left-exit-blockage left-exit"/>
    </vehicle>
    <vehicle id="L2-CV-16" type="L2-CV-" depart="254.40">
        <route edges="bottom-approaching left-exit-blockage left-exit"/>
    </vehicle>
    <vehicle id="L2-CV-17" type="L2-CV-Right-" depart="262.80">
        <route edges="left-long-approaching left-short-approaching bottom-exit"/>
    </vehicle>
    <vehicle id="L2-CV-18" type="L2-CV-" depart="271.20">
        <route edges="top-approaching right-exit"/>
    </vehicle>
    <vehicle id="L2-CV-19" type="L2-CV-" depart="279.60">
        <route edges="right-approaching bottom-exit"/>
    </vehicle>
    <vehicle id="L2-CV-21" type="L2-CV-" depart="296.40">
        <route edges="bottom-approaching left-exit-blockage left-exit"/>
    </vehicle>
    <vehicle id="L2-CV-23" type="L2-CV-" depart="313.20">
        <route edges="top-approaching left-exit-blockage left-exit"/>
    </vehicle>
    <vehicle id="L2-CV-24" type="L2-CV-" depart="321.60">
        <route edges="top-approaching right-exit"/>
    </vehicle>
    <vehicle id="L2-CV-25" type="L2-CV-" depart="330.00">
        <route edges="left-long-approaching left-short-approaching right-exit"/>
    </vehicle>
    <vehicle id="L2-CV-27" type="L2-CV-" depart="346.80">
        <route edges="left-long-approaching left-short-approaching right-exit"/>
    </vehicle>
    <vehicle id="L2-CV-29" type="L2-CV-" depart="363.60">
        <route edges="top-approaching left-exit-blockage left-exit"/>
    </vehicle>
    <vehicle id="L2-CV-30" type="L2-CV-" depart="372.00">
        <route edges="bottom-approaching right-exit"/>
    </vehicle>
    <vehicle id="L2-CV-33" type="L2-CV-" depart="397.20">
        <route edges="right-approaching top-exit"/>
    </vehicle>
    <vehicle id="L2-CV-34" type="L2-CV-" depart="405.60">
        <route edges="right-approaching left-exit-blockage left-exit"/>
    </vehicle>
    <vehicle id="L2-CV-35" type="L2-CV-Right-" depart="414.00">
        <route edges="left-long-approaching left-short-approaching bottom-exit"/>
    </vehicle>
    <vehicle id="L2-CV-36" type="L2-CV-" depart="422.40">
        <route edges="bottom-approaching right-exit"/>
    </vehicle>
    <vehicle id="L2-CV-37" type="L2-CV-" depart="430.80">
        <route edges="top-approaching right-exit"/>
    </vehicle>
    <vehicle id="L2-CV-38" type="L2-CV-Right-" depart="439.20">
        <route edges="left-long-approaching left-short-approaching bottom-exit"/>
    </vehicle>
    <vehicle id="L2-CV-39" type="L2-CV-Left-" depart="447.60">
        <route edges="left-long-approaching left-short-approaching top-exit"/>
    </vehicle>
    <vehicle id="L2-CV-40" type="L2-CV-" depart="456.00">
        <route edges="top-approaching right-exit"/>
    </vehicle>
    <vehicle id="L2-CV-41" type="L2-CV-" depart="464.40">
        <route edges="top-approaching bottom-exit"/>
    </vehicle>
    <vehicle id="L2-CV-42" type="L2-CV-" depart="472.80">
        <route edges="right-approaching top-exit"/>
    </vehicle>
    <vehicle id="L2-CV-43" type="L2-CV-" depart="481.20">
        <route edges="right-approaching left-exit-blockage left-exit"/>
    </vehicle>
    <vehicle id="L2-CV-44" type="L2-CV-" depart="489.60">
        <route edges="left-long-approaching left-short-approaching right-exit"/>
    </vehicle>
    <vehicle id="L2-CV-45" type="L2-CV-" depart="498.00">
        <route edges="top-approaching bottom-exit"/>
    </vehicle>
    <vehicle id="L2-CV-47" type="L2-CV-" depart="514.80">
        <route edges="top-approaching right-exit"/>
    </vehicle>
    <vehicle id="L2-CV-48" type="L2-CV-" depart="523.20">
        <route edges="top-approaching right-exit"/>
    </vehicle>
    <vehicle id="L2-CV-49" type="L2-CV-" depart="531.60">
        <route edges="right-approaching left-exit-blockage left-exit"/>
    </vehicle>
    <vehicle id="L2-CV-50" type="L2-CV-" depart="540.00">
        <route edges="bottom-approaching top-exit"/>
    </vehicle>
    <vehicle id="L2-CV-51" type="L2-CV-" depart="548.40">
        <route edges="right-approaching bottom-exit"/>
    </vehicle>
    <vehicle id="L2-CV-55" type="L2-CV-" depart="582.00">
        <route edges="right-approaching left-exit-blockage left-exit"/>
    </vehicle>
    <vehicle id="L2-CV-57" type="L2-CV-" depart="598.80">
        <route edges="bottom-approaching right-exit"/>
    </vehicle>
    <vehicle id="L2-CV-60" type="L2-CV-Left-" depart="624.00">
        <route edges="left-long-approaching left-short-approaching top-exit"/>
    </vehicle>
    <vehicle id="L2-CV-61" type="L2-CV-" depart="632.40">
        <route edges="right-approaching bottom-exit"/>
    </vehicle>
    <vehicle id="L2-CV-63" type="L2-CV-" depart="649.20">
        <route edges="top-approaching left-exit-blockage left-exit"/>
    </vehicle>
    <vehicle id="L2-CV-64" type="L2-CV-" depart="657.60">
        <route edges="bottom-approaching right-exit"/>
    </vehicle>
    <vehicle id="L2-CV-65" type="L2-CV-Right-" depart="666.00">
        <route edges="left-long-approaching left-short-approaching bottom-exit"/>
    </vehicle>
    <vehicle id="L2-CV-66" type="L2-CV-" depart="674.40">
        <route edges="bottom-approaching right-exit"/>
    </vehicle>
    <vehicle id="L2-CV-67" type="L2-CV-" depart="682.80">
        <route edges="bottom-approaching left-exit-blockage left-exit"/>
    </vehicle>
    <vehicle id="L2-CV-68" type="L2-CV-" depart="691.20">
        <route edges="right-approaching left-exit-blockage left-exit"/>
    </vehicle>
    <vehicle id="L2-CV-70" type="L2-CV-" depart="708.00">
        <route edges="bottom-approaching left-exit-blockage left-exit"/>
    </vehicle>
    <vehicle id="L2-CV-71" type="L2-CV-Right-" depart="716.40">
        <route edges="left-long-approaching left-short-approaching bottom-exit"/>
    </vehicle>
    <vehicle id="L2-CV-72" type="L2-CV-" depart="724.80">
        <route edges="bottom-approaching top-exit"/>
    </vehicle>
    <vehicle id="L2-CV-73" type="L2-CV-" depart="733.20">
        <route edges="right-approaching bottom-exit"/>
    </vehicle>
    <vehicle id="L2-CV-74" type="L2-CV-" depart="741.60">
        <route edges="right-approaching top-exit"/>
    </vehicle>
    <vehicle id="L2-CV-76" type="L2-CV-" depart="758.40">
        <route edges="bottom-approaching right-exit"/>
    </vehicle>
    <vehicle id="L2-CV-77" type="L2-CV-" depart="766.80">
        <route edges="bottom-approaching right-exit"/>
    </vehicle>
    <vehicle id="L2-CV-79" type="L2-CV-" depart="783.60">
        <route edges="bottom-approaching top-exit"/>
    </vehicle>
    <vehicle id="L2-CV-80" type="L2-CV-" depart="792.00">
        <route edges="top-approaching right-exit"/>
    </vehicle>
    <vehicle id="L2-CV-81" type="L2-CV-" depart="800.40">
        <route edges="bottom-approaching right-exit"/>
    </vehicle>
    <vehicle id="L2-CV-82" type="L2-CV-" depart="808.80">
        <route edges="left-long-approaching left-short-approaching right-exit"/>
    </vehicle>
    <vehicle id="L2-CV-83" type="L2-CV-" depart="817.20">
        <route edges="left-long-approaching left-short-approaching right-exit"/>
    </vehicle>
    <vehicle id="L2-CV-84" type="L2-CV-" depart="825.60">
        <route edges="bottom-approaching left-exit-blockage left-exit"/>
    </vehicle>
    <vehicle id="L2-CV-86" type="L2-CV-Left-" depart="842.40">
        <route edges="left-long-approaching left-short-approaching top-exit"/>
    </vehicle>
    <vehicle id="L2-CV-87" type="L2-CV-Left-" depart="850.80">
        <route edges="left-long-approaching left-short-approaching top-exit"/>
    </vehicle>
    <vehicle id="L2-CV-88" type="L2-CV-" depart="859.20">
        <route edges="right-approaching left-exit-blockage left-exit"/>
    </vehicle>
    <vehicle id="L2-CV-90" type="L2-CV-" depart="876.00">
        <route edges="top-approaching bottom-exit"/>
    </vehicle>
    <vehicle id="L2-CV-92" type="L2-CV-" depart="892.80">
        <route edges="right-approaching bottom-exit"/>
    </vehicle>
    <vehicle id="L2-CV-96" type="L2-CV-" depart="926.40">
        <route edges="bottom-approaching right-exit"/>
    </vehicle>
    <vehicle id="L2-CV-97" type="L2-CV-Right-" depart="934.80">
        <route edges="left-long-approaching left-short-approaching bottom-exit"/>
    </vehicle>
    <vehicle id="L2-CV-98" type="L2-CV-" depart="943.20">
        <route edges="bottom-approaching right-exit"/>
    </vehicle>
    <vehicle id="L2-CV-100" type="L2-CV-Left-" depart="960.00">
        <route edges="left-long-approaching left-short-approaching top-exit"/>
    </vehicle>
    <vehicle id="L2-CV-101" type="L2-CV-" depart="968.40">
        <route edges="top-approaching bottom-exit"/>
    </vehicle>
    <vehicle id="L2-CV-102" type="L2-CV-" depart="976.80">
        <route edges="bottom-approaching left-exit-blockage left-exit"/>
    </vehicle>
    <vehicle id="L2-CV-104" type="L2-CV-Right-" depart="993.60">
        <route edges="left-long-approaching left-short-approaching bottom-exit"/>
    </vehicle>
    <vehicle id="L2-CV-105" type="L2-CV-" depart="1002.00">
        <route edges="right-approaching top-exit"/>
    </vehicle>
    <vehicle id="L2-CV-106" type="L2-CV-" depart="1010.40">
        <route edges="top-approaching left-exit-blockage left-exit"/>
    </vehicle>
    <vehicle id="L2-CV-107" type="L2-CV-" depart="1018.80">
        <route edges="top-approaching right-exit"/>
    </vehicle>
    <vehicle id="L2-CV-108" type="L2-CV-Left-" depart="1027.20">
        <route edges="left-long-approaching left-short-approaching top-exit"/>
    </vehicle>
    <vehicle id="L2-CV-109" type="L2-CV-" depart="1035.60">
        <route edges="bottom-approaching right-exit"/>
    </vehicle>
    <vehicle id="L2-CV-111" type="L2-CV-" depart="1052.40">
        <route edges="top-approaching bottom-exit"/>
    </vehicle>
    <vehicle id="L2-CV-112" type="L2-CV-" depart="1060.80">
        <route edges="top-approaching right-exit"/>
    </vehicle>
    <vehicle id="L2-CV-113" type="L2-CV-" depart="1069.20">
        <route edges="top-approaching left-exit-blockage left-exit"/>
    </vehicle>
    <vehicle id="L2-CV-115" type="L2-CV-" depart="1086.00">
        <route edges="top-approaching right-exit"/>
    </vehicle>
    <vehicle id="L2-CV-117" type="L2-CV-" depart="1102.80">
        <route edges="bottom-approaching right-exit"/>
    </vehicle>
    <vehicle id="L2-CV-119" type="L2-CV-" depart="1119.60">
        <route edges="bottom-approaching top-exit"/>
    </vehicle>
    <vehicle id="L2-CV-121" type="L2-CV-" depart="1136.40">
        <route edges="left-long-approaching left-short-approaching right-exit"/>
    </vehicle>
    <vehicle id="L2-CV-122" type="L2-CV-" depart="1144.80">
        <route edges="top-approaching left-exit-blockage left-exit"/>
    </vehicle>
    <vehicle id="L2-CV-123" type="L2-CV-" depart="1153.20">
        <route edges="right-approaching bottom-exit"/>
    </vehicle>
    <vehicle id="L2-CV-124" type="L2-CV-" depart="1161.60">
        <route edges="bottom-approaching left-exit-blockage left-exit"/>
    </vehicle>
    <vehicle id="L2-CV-125" type="L2-CV-" depart="1170.00">
        <route edges="top-approaching right-exit"/>
    </vehicle>
    <vehicle id="L2-CV-126" type="L2-CV-" depart="1178.40">
        <route edges="top-approaching left-exit-blockage left-exit"/>
    </vehicle>
    <vehicle id="L2-CV-127" type="L2-CV-Left-" depart="1186.80">
        <route edges="left-long-approaching left-short-approaching top-exit"/>
    </vehicle>
    <vehicle id="L2-CV-128" type="L2-CV-" depart="1195.20">
        <route edges="top-approaching bottom-exit"/>
    </vehicle>
    <vehicle id="L2-CV-129" type="L2-CV-" depart="1203.60">
        <route edges="right-approaching bottom-exit"/>
    </vehicle>
    <vehicle id="L2-CV-130" type="L2-CV-" depart="1212.00">
        <route edges="bottom-approaching top-exit"/>
    </vehicle>
    <vehicle id="L2-CV-132" type="L2-CV-" depart="1228.80">
        <route edges="top-approaching left-exit-blockage left-exit"/>
    </vehicle>
    <vehicle id="L2-CV-134" type="L2-CV-" depart="1245.60">
        <route edges="bottom-approaching right-exit"/>
    </vehicle>
    <vehicle id="L2-CV-135" type="L2-CV-" depart="1254.00">
        <route edges="bottom-approaching top-exit"/>
    </vehicle>
    <vehicle id="L2-CV-136" type="L2-CV-Left-" depart="1262.40">
        <route edges="left-long-approaching left-short-approaching top-exit"/>
    </vehicle>
    <vehicle id="L2-CV-137" type="L2-CV-" depart="1270.80">
        <route edges="top-approaching left-exit-blockage left-exit"/>
    </vehicle>
    <vehicle id="L2-CV-139" type="L2-CV-" depart="1287.60">
        <route edges="bottom-approaching right-exit"/>
    </vehicle>
    <vehicle id="L2-CV-141" type="L2-CV-" depart="1304.40">
        <route edges="top-approaching left-exit-blockage left-exit"/>
    </vehicle>
    <vehicle id="L2-CV-142" type="L2-CV-" depart="1312.80">
        <route edges="right-approaching left-exit-blockage left-exit"/>
    </vehicle>
    <vehicle id="L2-CV-143" type="L2-CV-Right-" depart="1321.20">
        <route edges="left-long-approaching left-short-approaching bottom-exit"/>
    </vehicle>
    <vehicle id="L2-CV-145" type="L2-CV-" depart="1338.00">
        <route edges="top-approaching bottom-exit"/>
    </vehicle>
    <vehicle id="L2-CV-146" type="L2-CV-" depart="1346.40">
        <route edges="bottom-approaching right-exit"/>
    </vehicle>
    <vehicle id="L2-CV-147" type="L2-CV-" depart="1354.80">
        <route edges="top-approaching right-exit"/>
    </vehicle>
    <vehicle id="L2-CV-149" type="L2-CV-" depart="1371.60">
        <route edges="left-long-approaching left-short-approaching right-exit"/>
    </vehicle>
    <vehicle id="L2-CV-150" type="L2-CV-Right-" depart="1380.00">
        <route edges="left-long-approaching left-short-approaching bottom-exit"/>
    </vehicle>
    <vehicle id="L2-CV-151" type="L2-CV-" depart="1388.40">
        <route edges="bottom-approaching left-exit-blockage left-exit"/>
    </vehicle>
    <vehicle id="L2-CV-152" type="L2-CV-" depart="1396.80">
        <route edges="top-approaching left-exit-blockage left-exit"/>
    </vehicle>
    <vehicle id="L2-CV-154" type="L2-CV-" depart="1413.60">
        <route edges="top-approaching left-exit-blockage left-exit"/>
    </vehicle>
    <vehicle id="L2-CV-156" type="L2-CV-Left-" depart="1430.40">
        <route edges="left-long-approaching left-short-approaching top-exit"/>
    </vehicle>
    <vehicle id="L2-CV-157" type="L2-CV-" depart="1438.80">
        <route edges="top-approaching left-exit-blockage left-exit"/>
    </vehicle>
    <vehicle id="L2-CV-158" type="L2-CV-" depart="1447.20">
        <route edges="left-long-approaching left-short-approaching right-exit"/>
    </vehicle>
    <vehicle id="L2-CV-162" type="L2-CV-" depart="1480.80">
        <route edges="right-approaching bottom-exit"/>
    </vehicle>
    <vehicle id="L2-CV-163" type="L2-CV-" depart="1489.20">
        <route edges="bottom-approaching right-exit"/>
    </vehicle>
    <vehicle id="L2-CV-164" type="L2-CV-Left-" depart="1497.60">
        <route edges="left-long-approaching left-short-approaching top-exit"/>
    </vehicle>
    <vehicle id="L2-CV-165" type="L2-CV-Left-" depart="1506.00">
        <route edges="left-long-approaching left-short-approaching top-exit"/>
    </vehicle>
    <vehicle id="L2-CV-167" type="L2-CV-" depart="1522.80">
        <route edges="top-approaching bottom-exit"/>
    </vehicle>
    <vehicle id="L2-CV-168" type="L2-CV-" depart="1531.20">
        <route edges="top-approaching bottom-exit"/>
    </vehicle>
    <vehicle id="L2-CV-170" type="L2-CV-" depart="1548.00">
        <route edges="top-approaching left-exit-blockage left-exit"/>
    </vehicle>
    <vehicle id="L2-CV-171" type="L2-CV-" depart="1556.40">
        <route edges="bottom-approaching right-exit"/>
    </vehicle>
    <vehicle id="L2-CV-172" type="L2-CV-" depart="1564.80">
        <route edges="top-approaching left-exit-blockage left-exit"/>
    </vehicle>
    <vehicle id="L2-CV-173" type="L2-CV-" depart="1573.20">
        <route edges="top-approaching bottom-exit"/>
    </vehicle>
    <vehicle id="L2-CV-174" type="L2-CV-" depart="1581.60">
        <route edges="top-approaching bottom-exit"/>
    </vehicle>
    <vehicle id="L2-CV-175" type="L2-CV-Left-" depart="1590.00">
        <route edges="left-long-approaching left-short-approaching top-exit"/>
    </vehicle>
    <vehicle id="L2-CV-177" type="L2-CV-" depart="1606.80">
        <route edges="top-approaching right-exit"/>
    </vehicle>
    <vehicle id="L2-CV-178" type="L2-CV-" depart="1615.20">
        <route edges="right-approaching bottom-exit"/>
    </vehicle>
    <vehicle id="L2-CV-179" type="L2-CV-Right-" depart="1623.60">
        <route edges="left-long-approaching left-short-approaching bottom-exit"/>
    </vehicle>
    <vehicle id="L2-CV-184" type="L2-CV-" depart="1665.60">
        <route edges="top-approaching left-exit-blockage left-exit"/>
    </vehicle>
    <vehicle id="L2-CV-186" type="L2-CV-Right-" depart="1682.40">
        <route edges="left-long-approaching left-short-approaching bottom-exit"/>
    </vehicle>
    <vehicle id="L2-CV-187" type="L2-CV-" depart="1690.80">
        <route edges="right-approaching left-exit-blockage left-exit"/>
    </vehicle>
    <vehicle id="L2-CV-188" type="L2-CV-" depart="1699.20">
        <route edges="right-approaching bottom-exit"/>
    </vehicle>
    <vehicle id="L2-CV-189" type="L2-CV-Right-" depart="1707.60">
        <route edges="left-long-approaching left-short-approaching bottom-exit"/>
    </vehicle>
    <vehicle id="L2-CV-190" type="L2-CV-" depart="1716.00">
        <route edges="bottom-approaching left-exit-blockage left-exit"/>
    </vehicle>
    <vehicle id="L2-CV-191" type="L2-CV-" depart="1724.40">
        <route edges="top-approaching left-exit-blockage left-exit"/>
    </vehicle>
    <vehicle id="L2-CV-192" type="L2-CV-" depart="1732.80">
        <route edges="left-long-approaching left-short-approaching right-exit"/>
    </vehicle>
    <vehicle id="L2-CV-195" type="L2-CV-" depart="1758.00">
        <route edges="right-approaching left-exit-blockage left-exit"/>
    </vehicle>
    <vehicle id="L2-CV-197" type="L2-CV-" depart="1774.80">
        <route edges="bottom-approaching left-exit-blockage left-exit"/>
    </vehicle>
    <vehicle id="L2-CV-198" type="L2-CV-Right-" depart="1783.20">
        <route edges="left-long-approaching left-short-approaching bottom-exit"/>
    </vehicle>
    <vehicle id="L2-CV-199" type="L2-CV-" depart="1791.60">
        <route edges="left-long-approaching left-short-approaching right-exit"/>
    </vehicle>
    <vehicle id="L2-CV-201" type="L2-CV-" depart="1808.40">
        <route edges="left-long-approaching left-short-approaching right-exit"/>
    </vehicle>
    <vehicle id="L2-CV-203" type="L2-CV-" depart="1825.20">
        <route edges="right-approaching top-exit"/>
    </vehicle>
    <vehicle id="L2-CV-204" type="L2-CV-" depart="1833.60">
        <route edges="bottom-approaching top-exit"/>
    </vehicle>
    <vehicle id="L2-CV-205" type="L2-CV-" depart="1842.00">
        <route edges="top-approaching left-exit-blockage left-exit"/>
    </vehicle>
    <vehicle id="L2-CV-206" type="L2-CV-" depart="1850.40">
        <route edges="right-approaching top-exit"/>
    </vehicle>
    <vehicle id="L2-CV-207" type="L2-CV-" depart="1858.80">
        <route edges="left-long-approaching left-short-approaching right-exit"/>
    </vehicle>
    <vehicle id="L2-CV-210" type="L2-CV-" depart="1884.00">
        <route edges="top-approaching right-exit"/>
    </vehicle>
    <vehicle id="L2-CV-211" type="L2-CV-" depart="1892.40">
        <route edges="bottom-approaching left-exit-blockage left-exit"/>
    </vehicle>
    <vehicle id="L2-CV-212" type="L2-CV-" depart="1900.80">
        <route edges="bottom-approaching right-exit"/>
    </vehicle>
    <vehicle id="L2-CV-213" type="L2-CV-" depart="1909.20">
        <route edges="top-approaching bottom-exit"/>
    </vehicle>
    <vehicle id="L2-CV-215" type="L2-CV-" depart="1926.00">
        <route edges="left-long-approaching left-short-approaching right-exit"/>
    </vehicle>
    <vehicle id="L2-CV-216" type="L2-CV-" depart="1934.40">
        <route edges="bottom-approaching right-exit"/>
    </vehicle>
    <vehicle id="L2-CV-217" type="L2-CV-" depart="1942.80">
        <route edges="bottom-approaching top-exit"/>
    </vehicle>
    <vehicle id="L2-CV-218" type="L2-CV-" depart="1951.20">
        <route edges="top-approaching right-exit"/>
    </vehicle>
    <vehicle id="L2-CV-219" type="L2-CV-Left-" depart="1959.60">
        <route edges="left-long-approaching left-short-approaching top-exit"/>
    </vehicle>
    <vehicle id="L2-CV-220" type="L2-CV-" depart="1968.00">
        <route edges="top-approaching bottom-exit"/>
    </vehicle>
    <vehicle id="L2-CV-223" type="L2-CV-Left-" depart="1993.20">
        <route edges="left-long-approaching left-short-approaching top-exit"/>
    </vehicle>
    <vehicle id="L2-CV-224" type="L2-CV-" depart="2001.60">
        <route edges="top-approaching left-exit-blockage left-exit"/>
    </vehicle>
    <vehicle id="L2-CV-225" type="L2-CV-" depart="2010.00">
        <route edges="top-approaching left-exit-blockage left-exit"/>
    </vehicle>
    <vehicle id="L2-CV-226" type="L2-CV-" depart="2018.40">
        <route edges="bottom-approaching left-exit-blockage left-exit"/>
    </vehicle>
    <vehicle id="L2-CV-227" type="L2-CV-" depart="2026.80">
        <route edges="bottom-approaching top-exit"/>
    </vehicle>
    <vehicle id="L2-CV-228" type="L2-CV-" depart="2035.20">
        <route edges="top-approaching bottom-exit"/>
    </vehicle>
    <vehicle id="L2-CV-229" type="L2-CV-" depart="2043.60">
        <route edges="right-approaching left-exit-blockage left-exit"/>
    </vehicle>
    <vehicle id="L2-CV-230" type="L2-CV-" depart="2052.00">
        <route edges="bottom-approaching left-exit-blockage left-exit"/>
    </vehicle>
    <vehicle id="L2-CV-233" type="L2-CV-Right-" depart="2077.20">
        <route edges="left-long-approaching left-short-approaching bottom-exit"/>
    </vehicle>
    <vehicle id="L2-CV-235" type="L2-CV-" depart="2094.00">
        <route edges="top-approaching bottom-exit"/>
    </vehicle>
    <vehicle id="L2-CV-236" type="L2-CV-" depart="2102.40">
        <route edges="left-long-approaching left-short-approaching right-exit"/>
    </vehicle>
    <vehicle id="L2-CV-237" type="L2-CV-" depart="2110.80">
        <route edges="left-long-approaching left-short-approaching right-exit"/>
    </vehicle>
    <vehicle id="L2-CV-240" type="L2-CV-" depart="2136.00">
        <route edges="top-approaching right-exit"/>
    </vehicle>
    <vehicle id="L2-CV-241" type="L2-CV-Left-" depart="2144.40">
        <route edges="left-long-approaching left-short-approaching top-exit"/>
    </vehicle>
    <vehicle id="L2-CV-242" type="L2-CV-" depart="2152.80">
        <route edges="top-approaching right-exit"/>
    </vehicle>
    <vehicle id="L2-CV-244" type="L2-CV-" depart="2169.60">
        <route edges="bottom-approaching top-exit"/>
    </vehicle>
    <vehicle id="L2-CV-245" type="L2-CV-" depart="2178.00">
        <route edges="bottom-approaching right-exit"/>
    </vehicle>
    <vehicle id="L2-CV-246" type="L2-CV-" depart="2186.40">
        <route edges="right-approaching top-exit"/>
    </vehicle>
    <vehicle id="L2-CV-249" type="L2-CV-" depart="2211.60">
        <route edges="right-approaching left-exit-blockage left-exit"/>
    </vehicle>
    <vehicle id="L2-CV-251" type="L2-CV-" depart="2228.40">
        <route edges="right-approaching bottom-exit"/>
    </vehicle>
    <vehicle id="L2-CV-254" type="L2-CV-" depart="2253.60">
        <route edges="top-approaching right-exit"/>
    </vehicle>
    <vehicle id="L2-CV-255" type="L2-CV-" depart="2262.00">
        <route edges="left-long-approaching left-short-approaching right-exit"/>
    </vehicle>
    <vehicle id="L2-CV-256" type="L2-CV-Right-" depart="2270.40">
        <route edges="left-long-approaching left-short-approaching bottom-exit"/>
    </vehicle>
    <vehicle id="L2-CV-257" type="L2-CV-" depart="2278.80">
        <route edges="bottom-approaching left-exit-blockage left-exit"/>
    </vehicle>
    <vehicle id="L2-CV-258" type="L2-CV-" depart="2287.20">
        <route edges="right-approaching top-exit"/>
    </vehicle>
    <vehicle id="L2-CV-259" type="L2-CV-" depart="2295.60">
        <route edges="top-approaching right-exit"/>
    </vehicle>
    <vehicle id="L2-CV-260" type="L2-CV-" depart="2304.00">
        <route edges="top-approaching left-exit-blockage left-exit"/>
    </vehicle>
    <vehicle id="L2-CV-261" type="L2-CV-" depart="2312.40">
        <route edges="top-approaching left-exit-blockage left-exit"/>
    </vehicle>
    <vehicle id="L2-CV-262" type="L2-CV-" depart="2320.80">
        <route edges="right-approaching top-exit"/>
    </vehicle>
    <vehicle id="L2-CV-263" type="L2-CV-Right-" depart="2329.20">
        <route edges="left-long-approaching left-short-approaching bottom-exit"/>
    </vehicle>
    <vehicle id="L2-CV-265" type="L2-CV-Right-" depart="2346.00">
        <route edges="left-long-approaching left-short-approaching bottom-exit"/>
    </vehicle>
    <vehicle id="L2-CV-267" type="L2-CV-Left-" depart="2362.80">
        <route edges="left-long-approaching left-short-approaching top-exit"/>
    </vehicle>
    <vehicle id="L2-CV-269" type="L2-CV-" depart="2379.60">
        <route edges="top-approaching right-exit"/>
    </vehicle>
    <vehicle id="L2-CV-270" type="L2-CV-" depart="2388.00">
        <route edges="left-long-approaching left-short-approaching right-exit"/>
    </vehicle>
    <vehicle id="L2-CV-272" type="L2-CV-" depart="2404.80">
        <route edges="right-approaching left-exit-blockage left-exit"/>
    </vehicle>
    <vehicle id="L2-CV-276" type="L2-CV-" depart="2438.40">
        <route edges="top-approaching right-exit"/>
    </vehicle>
    <vehicle id="L2-CV-278" type="L2-CV-" depart="2455.20">
        <route edges="right-approaching top-exit"/>
    </vehicle>
    <vehicle id="L2-CV-279" type="L2-CV-" depart="2463.60">
        <route edges="right-approaching bottom-exit"/>
    </vehicle>
    <vehicle id="L2-CV-280" type="L2-CV-" depart="2472.00">
        <route edges="top-approaching left-exit-blockage left-exit"/>
    </vehicle>
    <vehicle id="L2-CV-281" type="L2-CV-Right-" depart="2480.40">
        <route edges="left-long-approaching left-short-approaching bottom-exit"/>
    </vehicle>
    <vehicle id="L2-CV-284" type="L2-CV-" depart="2505.60">
        <route edges="right-approaching bottom-exit"/>
    </vehicle>
    <vehicle id="L2-CV-285" type="L2-CV-" depart="2514.00">
        <route edges="right-approaching top-exit"/>
    </vehicle>
    <vehicle id="L2-CV-286" type="L2-CV-" depart="2522.40">
        <route edges="right-approaching left-exit-blockage left-exit"/>
    </vehicle>
    <vehicle id="L2-CV-289" type="L2-CV-" depart="2547.60">
        <route edges="top-approaching left-exit-blockage left-exit"/>
    </vehicle>
    <vehicle id="L2-CV-290" type="L2-CV-" depart="2556.00">
        <route edges="bottom-approaching top-exit"/>
    </vehicle>
    <vehicle id="L2-CV-291" type="L2-CV-" depart="2564.40">
        <route edges="right-approaching left-exit-blockage left-exit"/>
    </vehicle>
    <vehicle id="L2-CV-293" type="L2-CV-" depart="2581.20">
        <route edges="bottom-approaching right-exit"/>
    </vehicle>
    <vehicle id="L2-CV-294" type="L2-CV-" depart="2589.60">