<?xml version="1.0" ?><!-- generated on 03/28/21 23:30:43 by Eclipse SUMO duarouter Version 1.8.0
<configuration xmlns:xsi="http://www.w3.org/2001/XMLSchema-instance" xsi:noNamespaceSchemaLocation="http://sumo.dlr.de/xsd/duarouterConfiguration.xsd">

    <input>
        <net-file value="Collision/CollisionIntersection.net.xml"/>
        <route-files value="trips.trips.xml"/>
    </input>

    <output>
        <output-file value="Collision/RealTMSPenetration1/Route-Files/L4-CV-Route.rou.xml"/>
        <alternatives-output value="Collision/RealTMSPenetration1/Route-Files/L4-CV-Route.rou.alt.xml"/>
    </output>

    <time>
        <begin value="120"/>
        <end value="3600"/>
    </time>

    <report>
        <no-warnings value="true"/>
        <ignore-errors value="true"/>
        <no-step-log value="true"/>
    </report>

</configuration>
--><routes xmlns:xsi="http://www.w3.org/2001/XMLSchema-instance" xsi:noNamespaceSchemaLocation="http://sumo.dlr.de/xsd/routes_file.xsd">
    <vehicle id="L4-CV-0" type="L4-CV-" depart="120.00">
        <route edges="bottom-approaching right-exit"/>
    </vehicle>
    <vehicle id="L4-CV-1" type="L4-CV-" depart="156.00">
        <route edges="left-long-approaching left-short-approaching right-exit"/>
    </vehicle>
    <vehicle id="L4-CV-2" type="L4-CV-" depart="192.00">
        <route edges="right-approaching bottom-exit"/>
    </vehicle>
    <vehicle id="L4-CV-3" type="L4-CV-" depart="228.00">
        <route edges="bottom-approaching top-exit"/>
    </vehicle>
    <vehicle id="L4-CV-4" type="L4-CV-Right-" depart="264.00">
        <route edges="left-long-approaching left-short-approaching bottom-exit"/>
    </vehicle>
    <vehicle id="L4-CV-5" type="L4-CV-" depart="300.00">
        <route edges="top-approaching left-exit-blockage left-exit"/>
    </vehicle>
    <vehicle id="L4-CV-6" type="L4-CV-" depart="336.00">
        <route edges="top-approaching left-exit-blockage left-exit"/>
    </vehicle>
    <vehicle id="L4-CV-7" type="L4-CV-" depart="372.00">
        <route edges="right-approaching bottom-exit"/>
    </vehicle>
    <vehicle id="L4-CV-8" type="L4-CV-" depart="408.00">
        <route edges="right-approaching top-exit"/>
    </vehicle>
    <vehicle id="L4-CV-10" type="L4-CV-" depart="480.00">
        <route edges="right-approaching bottom-exit"/>
    </vehicle>
    <vehicle id="L4-CV-11" type="L4-CV-" depart="516.00">
        <route edges="top-approaching right-exit"/>
    </vehicle>
    <vehicle id="L4-CV-12" type="L4-CV-Right-" depart="552.00">
        <route edges="left-long-approaching left-short-approaching bottom-exit"/>
    </vehicle>
    <vehicle id="L4-CV-13" type="L4-CV-" depart="588.00">
        <route edges="top-approaching left-exit-blockage left-exit"/>
    </vehicle>
    <vehicle id="L4-CV-14" type="L4-CV-" depart="624.00">
        <route edges="right-approaching top-exit"/>
    </vehicle>
    <vehicle id="L4-CV-15" type="L4-CV-" depart="660.00">
        <route edges="right-approaching top-exit"/>
    </vehicle>
    <vehicle id="L4-CV-16" type="L4-CV-Left-" depart="696.00">
        <route edges="left-long-approaching left-short-approaching top-exit"/>
    </vehicle>
    <vehicle id="L4-CV-17" type="L4-CV-Left-" depart="732.00">
        <route edges="left-long-approaching left-short-approaching top-exit"/>
    </vehicle>
    <vehicle id="L4-CV-18" type="L4-CV-" depart="768.00">
        <route edges="top-approaching bottom-exit"/>
    </vehicle>
    <vehicle id="L4-CV-20" type="L4-CV-" depart="840.00">
        <route edges="top-approaching left-exit-blockage left-exit"/>
    </vehicle>
    <vehicle id="L4-CV-21" type="L4-CV-" depart="876.00">
        <route edges="right-approaching left-exit-blockage left-exit"/>
    </vehicle>
    <vehicle id="L4-CV-22" type="L4-CV-" depart="912.00">
        <route edges="right-approaching left-exit-blockage left-exit"/>
    </vehicle>
    <vehicle id="L4-CV-23" type="L4-CV-" depart="948.00">
        <route edges="left-long-approaching left-short-approaching right-exit"/>
    </vehicle>
    <vehicle id="L4-CV-24" type="L4-CV-" depart="984.00">
        <route edges="right-approaching top-exit"/>
    </vehicle>
    <vehicle id="L4-CV-25" type="L4-CV-" depart="1020.00">
        <route edges="right-approaching top-exit"/>
    </vehicle>
    <vehicle id="L4-CV-27" type="L4-CV-" depart="1092.00">
        <route edges="right-approaching bottom-exit"/>
    </vehicle>
    <vehicle id="L4-CV-29" type="L4-CV-" depart="1164.00">
        <route edges="top-approaching right-exit"/>
    </vehicle>
    <vehicle id="L4-CV-30" type="L4-CV-" depart="1200.00">
        <route edges="right-approaching bottom-exit"/>
    </vehicle>
    <vehicle id="L4-CV-31" type="L4-CV-" depart="1236.00">
        <route edges="top-approaching right-exit"/>
    </vehicle>
    <vehicle id="L4-CV-32" type="L4-CV-Right-" depart="1272.00">
        <route edges="left-long-approaching left-short-approaching bottom-exit"/>
    </vehicle>
    <vehicle id="L4-CV-34" type="L4-CV-" depart="1344.00">
        <route edges="bottom-approaching top-exit"/>
    </vehicle>
    <vehicle id="L4-CV-35" type="L4-CV-Right-" depart="1380.00">
        <route edges="left-long-approaching left-short-approaching bottom-exit"/>
    </vehicle>
    <vehicle id="L4-CV-36" type="L4-CV-Left-" depart="1416.00">
        <route edges="left-long-approaching left-short-approaching top-exit"/>
    </vehicle>
    <vehicle id="L4-CV-37" type="L4-CV-" depart="1452.00">
        <route edges="top-approaching bottom-exit"/>
    </vehicle>
    <vehicle id="L4-CV-38" type="L4-CV-" depart="1488.00">
        <route edges="right-approaching bottom-exit"/>
    </vehicle>
    <vehicle id="L4-CV-39" type="L4-CV-" depart="1524.00">
        <route edges="right-approaching left-exit-blockage left-exit"/>
    </vehicle>
    <vehicle id="L4-CV-41" type="L4-CV-Left-" depart="1596.00">
        <route edges="left-long-approaching left-short-approaching top-exit"/>
    </vehicle>
    <vehicle id="L4-CV-42" type="L4-CV-Right-" depart="1632.00">
        <route edges="left-long-approaching left-short-approaching bottom-exit"/>
    </vehicle>
    <vehicle id="L4-CV-43" type="L4-CV-" depart="1668.00">
        <route edges="right-approaching bottom-exit"/>
    </vehicle>
    <vehicle id="L4-CV-44" type="L4-CV-" depart="1704.00">
        <route edges="bottom-approaching left-exit-blockage left-exit"/>
    </vehicle>
    <vehicle id="L4-CV-45" type="L4-CV-" depart="1740.00">
        <route edges="right-approaching bottom-exit"/>
    </vehicle>
    <vehicle id="L4-CV-46" type="L4-CV-" depart="1776.00">
        <route edges="bottom-approaching top-exit"/>
    </vehicle>
    <vehicle id="L4-CV-47" type="L4-CV-Left-" depart="1812.00">
        <route edges="left-long-approaching left-short-approaching top-exit"/>
    </vehicle>
    <vehicle id="L4-CV-48" type="L4-CV-" depart="1848.00">
        <route edges="top-approaching left-exit-blockage left-exit"/>
    </vehicle>
    <vehicle id="L4-CV-49" type="L4-CV-" depart="1884.00">
        <route edges="left-long-approaching left-short-approaching right-exit"/>
    </vehicle>
    <vehicle id="L4-CV-52" type="L4-CV-" depart="1992.00">
        <route edges="top-approaching right-exit"/>
    </vehicle>
    <vehicle id="L4-CV-53" type="L4-CV-" depart="2028.00">
        <route edges="left-long-approaching left-short-approaching right-exit"/>
    </vehicle>
    <vehicle id="L4-CV-54" type="L4-CV-" depart="2064.00">
        <route edges="bottom-approaching left-exit-blockage left-exit"/>
    </vehicle>
    <vehicle id="L4-CV-55" type="L4-CV-" depart="2100.00">
        <route edges="top-approaching right-exit"/>
    </vehicle>
    <vehicle id="L4-CV-56" type="L4-CV-" depart="2136.00">
        <route edges="right-approaching bottom-exit"/>
    </vehicle>
    <vehicle id="L4-CV-57" type="L4-CV-" depart="2172.00">
        <route edges="left-long-approaching left-short-approaching right-exit"/>
    </vehicle>
    <vehicle id="L4-CV-58" type="L4-CV-" depart="2208.00">
        <route edges="bottom-approaching right-exit"/>
    </vehicle>
    <vehicle id="L4-CV-59" type="L4-CV-" depart="2244.00">
        <route edges="right-approaching bottom-exit"/>
    </vehicle>
    <vehicle id="L4-CV-60" type="L4-CV-" depart="2280.00">
        <route edges="right-approaching left-exit-blockage left-exit"/>
    </vehicle>
    <vehicle id="L4-CV-61" type="L4-CV-" depart="2316.00">
        <route edges="right-approaching left-exit-blockage left-exit"/>
    </vehicle>
    <vehicle id="L4-CV-64" type="L4-CV-" depart="2424.00">
        <route edges="right-approaching top-exit"/>
    </vehicle>
    <vehicle id="L4-CV-65" type="L4-CV-" depart="2460.00">
        <route edges="bottom-approaching left-exit-blockage left-exit"/>
    </vehicle>
    <vehicle id="L4-CV-66" type="L4-CV-" depart="2496.00">
        <route edges="right-approaching left-exit-blockage left-exit"/>
    </vehicle>
    <vehicle id="L4-CV-68" type="L4-CV-" depart="2568.00">
        <route edges="left-long-approaching left-short-approaching right-exit"/>
    </vehicle>
    <vehicle id="L4-CV-70" type="L4-CV-" depart="2640.00">
        <route edges="top-approaching bottom-exit"/>
    </vehicle>
    <vehicle id="L4-CV-72" type="L4-CV-Right-" depart="2712.00">
        <route edges="left-long-approaching left-short-approaching bottom-exit"/>
    </vehicle>
    <vehicle id="L4-CV-73" type="L4-CV-" depart="2748.00">
        <route edges="top-approaching bottom-exit"/>
    </vehicle>
    <vehicle id="L4-CV-74" type="L4-CV-" depart="2784.00">
        <route edges="bottom-approaching left-exit-blockage left-exit"/>
    </vehicle>
    <vehicle id="L4-CV-75" type="L4-CV-" depart="2820.00">
        <route edges="right-approaching bottom-exit"/>
    </vehicle>
    <vehicle id="L4-CV-77" type="L4-CV-" depart="2892.00">
        <route edges="top-approaching left-exit-blockage left-exit"/>
    </vehicle>
    <vehicle id="L4-CV-78" type="L4-CV-" depart="2928.00">
        <route edges="top-approaching bottom-exit"/>
    </vehicle>
    <vehicle id="L4-CV-79" type="L4-CV-" depart="2964.00">
        <route edges="left-long-approaching left-short-approaching right-exit"/>
    </vehicle>
    <vehicle id="L4-CV-80" type="L4-CV-" depart="3000.00">
        <route edges="top-approaching left-exit-blockage left-exit"/>
    </vehicle>
    <vehicle id="L4-CV-82" type="L4-CV-" depart="3072.00">
        <route edges="right-approaching bottom-exit"/>
    </vehicle>
    <vehicle id="L4-CV-84" type="L4-CV-" depart="3144.00">
        <route edges="bottom-approaching left-exit-blockage left-exit"/>
    </vehicle>
    <vehicle id="L4-CV-85" type="L4-CV-" depart="3180.00">
        <route edges="top-approaching right-exit"/>
    </vehicle>
    <vehicle id="L4-CV-86" type="L4-CV-" depart="3216.00">
        <route edges="top-approaching left-exit-blockage left-exit"/>
    </vehicle>
    <vehicle id="L4-CV-87" type="L4-CV-" depart="3252.00">
        <route edges="bottom-approaching left-exit-blockage left-exit"/>
    </vehicle>
    <vehicle id="L4-CV-88" type="L4-CV-" depart="3288.00">
        <route edges="top-approaching left-exit-blockage left-exit"/>
    </vehicle>
    <vehicle id="L4-CV-91" type="L4-CV-" depart="3396.00">
        <route edges="top-approaching bottom-exit"/>
    </vehicle>
    <vehicle id="L4-CV-92" type="L4-CV-" depart="3432.00">
        <route edges="bottom-approaching top-exit"/>
    </vehicle>
    <vehicle id="L4-CV-94" type="L4-CV-Left-" depart="3504.00">
        <route edges="left-long-approaching left-short-approaching top-exit"/>
    </vehicle>
    <vehicle id="L4-CV-95" type="L4-CV-" depart="3540.00">
        <route edges="top-approaching bottom-exit"/>
    </vehicle>
    <vehicle id="L4-CV-96" type="L4-CV-" depart="3576.00">
        <route edges="right-approaching top-exit"/>
    </vehicle>
</routes>