<additional xmlns:xsi="http://www.w3.org/2001/XMLSchema-instance" xsi:noNamespaceSchemaLocation="http://sumo.dlr.de/xsd/additional_file.xsd">
    
    
    
    
    
    
    
    
    
    
    
    
    
    
    
    
    
    
    
    
    
    
    
    
    
    
    
    
    
    
    
    
    
    
    
    
    
    
    
    
    
    
    
    
    
    
    
    
    
    
    
    
    
    
    
    
    
    
    
    
    
    
    
    
    
    
    
    
    
    
    
    
    
    
    
    
    
    
    
    
    
    
    
    
    
    
    
    
    
    
    
    
    
    
    
    
    
    
    
    
    
    
    
    
    
    
    
    
    
    
    
    
    
    
    
    
    
    
    
    
    
    
    
    
    <vTypeDistribution id="L2-CV-Left-">
        <vType id="L2-CV-Left-0" vClass="custom2" carFollowModel="CACC" color="yellow" tau="0.600" decel="3.245" accel="1.003" emergencyDecel="9.000" lcAssertive="1.213" actionStepLength="0.100">
            <param key="has.toc.device" value="true"/>
            <param key="device.toc.manualType" value="L0-HDV-"/>
            <param key="device.toc.automatedType" value="L2-CV-Left-"/>
            <param key="device.toc.reponseTime" value="1.500"/>
            <param key="device.toc.initialAwareness" value="0.672"/>
            <param key="device.toc.recoveryRate" value="0.102"/>
            <param key="device.toc.tauCACCtoACC" value="1.613"/>
            <param key="device.toc.mrmDecel" value="3.000"/>
            <param key="device.toc.useColorScheme" value="true"/>
            <param key="has.ssm.device" value="true"/>
            <param key="device.ssm.measures" value="TTC"/>
            <param key="device.ssm.thresholds" value="3.000"/>
            <param key="device.ssm.range" value="50.000"/>
            <param key="device.ssm.extratime" value="5.000"/>
            <param key="device.ssm.file" value="Output-Files\SSM-L2-CV.xml"/>
            <param key="device.ssm.trajectories" value="false"/>
            <param key="device.ssm.geo" value="false"/>
        </vType>
        <vType id="L2-CV-Left-1" vClass="custom2" carFollowModel="CACC" color="yellow" tau="0.600" decel="2.675" accel="1.035" emergencyDecel="9.000" lcAssertive="1.224" actionStepLength="0.100">
            <param key="has.toc.device" value="true"/>
            <param key="device.toc.manualType" value="L0-HDV-"/>
            <param key="device.toc.automatedType" value="L2-CV-Left-"/>
            <param key="device.toc.reponseTime" value="1.500"/>
            <param key="device.toc.initialAwareness" value="0.994"/>
            <param key="device.toc.recoveryRate" value="0.237"/>
            <param key="device.toc.tauCACCtoACC" value="1.369"/>
            <param key="device.toc.mrmDecel" value="3.000"/>
            <param key="device.toc.useColorScheme" value="true"/>
            <param key="has.ssm.device" value="true"/>
            <param key="device.ssm.measures" value="TTC"/>
            <param key="device.ssm.thresholds" value="3.000"/>
            <param key="device.ssm.range" value="50.000"/>
            <param key="device.ssm.extratime" value="5.000"/>
            <param key="device.ssm.file" value="Output-Files\SSM-L2-CV.xml"/>
            <param key="device.ssm.trajectories" value="false"/>
            <param key="device.ssm.geo" value="false"/>
        </vType>
        <vType id="L2-CV-Left-2" vClass="custom2" carFollowModel="CACC" color="yellow" tau="0.600" decel="2.060" accel="1.866" emergencyDecel="9.000" lcAssertive="1.136" actionStepLength="0.100">
            <param key="has.toc.device" value="true"/>
            <param key="device.toc.manualType" value="L0-HDV-"/>
            <param key="device.toc.automatedType" value="L2-CV-Left-"/>
            <param key="device.toc.reponseTime" value="1.500"/>
            <param key="device.toc.initialAwareness" value="0.830"/>
            <param key="device.toc.recoveryRate" value="0.107"/>
            <param key="device.toc.tauCACCtoACC" value="1.562"/>
            <param key="device.toc.mrmDecel" value="3.000"/>
            <param key="device.toc.useColorScheme" value="true"/>
            <param key="has.ssm.device" value="true"/>
            <param key="device.ssm.measures" value="TTC"/>
            <param key="device.ssm.thresholds" value="3.000"/>
            <param key="device.ssm.range" value="50.000"/>
            <param key="device.ssm.extratime" value="5.000"/>
            <param key="device.ssm.file" value="Output-Files\SSM-L2-CV.xml"/>
            <param key="device.ssm.trajectories" value="false"/>
            <param key="device.ssm.geo" value="false"/>
        </vType>
        <vType id="L2-CV-Left-3" vClass="custom2" carFollowModel="CACC" color="yellow" tau="0.600" decel="2.568" accel="1.941" emergencyDecel="9.000" lcAssertive="1.216" actionStepLength="0.100">
            <param key="has.toc.device" value="true"/>
            <param key="device.toc.manualType" value="L0-HDV-"/>
            <param key="device.toc.automatedType" value="L2-CV-Left-"/>
            <param key="device.toc.reponseTime" value="1.500"/>
            <param key="device.toc.initialAwareness" value="0.593"/>
            <param key="device.toc.recoveryRate" value="0.214"/>
            <param key="device.toc.tauCACCtoACC" value="1.784"/>
            <param key="device.toc.mrmDecel" value="3.000"/>
            <param key="device.toc.useColorScheme" value="true"/>
            <param key="has.ssm.device" value="true"/>
            <param key="device.ssm.measures" value="TTC"/>
            <param key="device.ssm.thresholds" value="3.000"/>
            <param key="device.ssm.range" value="50.000"/>
            <param key="device.ssm.extratime" value="5.000"/>
            <param key="device.ssm.file" value="Output-Files\SSM-L2-CV.xml"/>
            <param key="device.ssm.trajectories" value="false"/>
            <param key="device.ssm.geo" value="false"/>
        </vType>
        <vType id="L2-CV-Left-4" vClass="custom2" carFollowModel="CACC" color="yellow" tau="0.600" decel="2.779" accel="1.501" emergencyDecel="9.000" lcAssertive="1.102" actionStepLength="0.100">
            <param key="has.toc.device" value="true"/>
            <param key="device.toc.manualType" value="L0-HDV-"/>
            <param key="device.toc.automatedType" value="L2-CV-Left-"/>
            <param key="device.toc.reponseTime" value="1.500"/>
            <param key="device.toc.initialAwareness" value="0.744"/>
            <param key="device.toc.recoveryRate" value="0.298"/>
            <param key="device.toc.tauCACCtoACC" value="1.704"/>
            <param key="device.toc.mrmDecel" value="3.000"/>
            <param key="device.toc.useColorScheme" value="true"/>
            <param key="has.ssm.device" value="true"/>
            <param key="device.ssm.measures" value="TTC"/>
            <param key="device.ssm.thresholds" value="3.000"/>
            <param key="device.ssm.range" value="50.000"/>
            <param key="device.ssm.extratime" value="5.000"/>
            <param key="device.ssm.file" value="Output-Files\SSM-L2-CV.xml"/>
            <param key="device.ssm.trajectories" value="false"/>
            <param key="device.ssm.geo" value="false"/>
        </vType>
        <vType id="L2-CV-Left-5" vClass="custom2" carFollowModel="CACC" color="yellow" tau="0.600" decel="2.649" accel="1.406" emergencyDecel="9.000" lcAssertive="1.142" actionStepLength="0.100">
            <param key="has.toc.device" value="true"/>
            <param key="device.toc.manualType" value="L0-HDV-"/>
            <param key="device.toc.automatedType" value="L2-CV-Left-"/>
            <param key="device.toc.reponseTime" value="1.500"/>
            <param key="device.toc.initialAwareness" value="0.750"/>
            <param key="device.toc.recoveryRate" value="0.126"/>
            <param key="device.toc.tauCACCtoACC" value="1.456"/>
            <param key="device.toc.mrmDecel" value="3.000"/>
            <param key="device.toc.useColorScheme" value="true"/>
            <param key="has.ssm.device" value="true"/>
            <param key="device.ssm.measures" value="TTC"/>
            <param key="device.ssm.thresholds" value="3.000"/>
            <param key="device.ssm.range" value="50.000"/>
            <param key="device.ssm.extratime" value="5.000"/>
            <param key="device.ssm.file" value="Output-Files\SSM-L2-CV.xml"/>
            <param key="device.ssm.trajectories" value="false"/>
            <param key="device.ssm.geo" value="false"/>
        </vType>
        <vType id="L2-CV-Left-6" vClass="custom2" carFollowModel="CACC" color="yellow" tau="0.600" decel="2.161" accel="0.825" emergencyDecel="9.000" lcAssertive="1.120" actionStepLength="0.100">
            <param key="has.toc.device" value="true"/>
            <param key="device.toc.manualType" value="L0-HDV-"/>
            <param key="device.toc.automatedType" value="L2-CV-Left-"/>
            <param key="device.toc.reponseTime" value="1.500"/>
            <param key="device.toc.initialAwareness" value="0.301"/>
            <param key="device.toc.recoveryRate" value="0.064"/>
            <param key="device.toc.tauCACCtoACC" value="1.387"/>
            <param key="device.toc.mrmDecel" value="3.000"/>
            <param key="device.toc.useColorScheme" value="true"/>
            <param key="has.ssm.device" value="true"/>
            <param key="device.ssm.measures" value="TTC"/>
            <param key="device.ssm.thresholds" value="3.000"/>
            <param key="device.ssm.range" value="50.000"/>
            <param key="device.ssm.extratime" value="5.000"/>
            <param key="device.ssm.file" value="Output-Files\SSM-L2-CV.xml"/>
            <param key="device.ssm.trajectories" value="false"/>
            <param key="device.ssm.geo" value="false"/>
        </vType>
        <vType id="L2-CV-Left-7" vClass="custom2" carFollowModel="CACC" color="yellow" tau="0.600" decel="2.782" accel="1.254" emergencyDecel="9.000" lcAssertive="1.210" actionStepLength="0.100">
            <param key="has.toc.device" value="true"/>
            <param key="device.toc.manualType" value="L0-HDV-"/>
            <param key="device.toc.automatedType" value="L2-CV-Left-"/>
            <param key="device.toc.reponseTime" value="1.500"/>
            <param key="device.toc.initialAwareness" value="0.649"/>
            <param key="device.toc.recoveryRate" value="0.283"/>
            <param key="device.toc.tauCACCtoACC" value="1.307"/>
            <param key="device.toc.mrmDecel" value="3.000"/>
            <param key="device.toc.useColorScheme" value="true"/>
            <param key="has.ssm.device" value="true"/>
            <param key="device.ssm.measures" value="TTC"/>
            <param key="device.ssm.thresholds" value="3.000"/>
            <param key="device.ssm.range" value="50.000"/>
            <param key="device.ssm.extratime" value="5.000"/>
            <param key="device.ssm.file" value="Output-Files\SSM-L2-CV.xml"/>
            <param key="device.ssm.trajectories" value="false"/>
            <param key="device.ssm.geo" value="false"/>
        </vType>
        <vType id="L2-CV-Left-8" vClass="custom2" carFollowModel="CACC" color="yellow" tau="0.600" decel="2.814" accel="0.796" emergencyDecel="9.000" lcAssertive="1.155" actionStepLength="0.100">
            <param key="has.toc.device" value="true"/>
            <param key="device.toc.manualType" value="L0-HDV-"/>
            <param key="device.toc.automatedType" value="L2-CV-Left-"/>
            <param key="device.toc.reponseTime" value="1.500"/>
            <param key="device.toc.initialAwareness" value="0.844"/>
            <param key="device.toc.recoveryRate" value="0.197"/>
            <param key="device.toc.tauCACCtoACC" value="1.464"/>
            <param key="device.toc.mrmDecel" value="3.000"/>
            <param key="device.toc.useColorScheme" value="true"/>
            <param key="has.ssm.device" value="true"/>
            <param key="device.ssm.measures" value="TTC"/>
            <param key="device.ssm.thresholds" value="3.000"/>
            <param key="device.ssm.range" value="50.000"/>
            <param key="device.ssm.extratime" value="5.000"/>
            <param key="device.ssm.file" value="Output-Files\SSM-L2-CV.xml"/>
            <param key="device.ssm.trajectories" value="false"/>
            <param key="device.ssm.geo" value="false"/>
        </vType>
        <vType id="L2-CV-Left-9" vClass="custom2" carFollowModel="CACC" color="yellow" tau="0.600" decel="2.866" accel="1.840" emergencyDecel="9.000" lcAssertive="1.108" actionStepLength="0.100">
            <param key="has.toc.device" value="true"/>
            <param key="device.toc.manualType" value="L0-HDV-"/>
            <param key="device.toc.automatedType" value="L2-CV-Left-"/>
            <param key="device.toc.reponseTime" value="1.500"/>
            <param key="device.toc.initialAwareness" value="0.757"/>
            <param key="device.toc.recoveryRate" value="0.017"/>
            <param key="device.toc.tauCACCtoACC" value="1.507"/>
            <param key="device.toc.mrmDecel" value="3.000"/>
            <param key="device.toc.useColorScheme" value="true"/>
            <param key="has.ssm.device" value="true"/>
            <param key="device.ssm.measures" value="TTC"/>
            <param key="device.ssm.thresholds" value="3.000"/>
            <param key="device.ssm.range" value="50.000"/>
            <param key="device.ssm.extratime" value="5.000"/>
            <param key="device.ssm.file" value="Output-Files\SSM-L2-CV.xml"/>
            <param key="device.ssm.trajectories" value="false"/>
            <param key="device.ssm.geo" value="false"/>
        </vType>
        <vType id="L2-CV-Left-10" vClass="custom2" carFollowModel="CACC" color="yellow" tau="0.600" decel="2.115" accel="0.984" emergencyDecel="9.000" lcAssertive="1.194" actionStepLength="0.100">
            <param key="has.toc.device" value="true"/>
            <param key="device.toc.manualType" value="L0-HDV-"/>
            <param key="device.toc.automatedType" value="L2-CV-Left-"/>
            <param key="device.toc.reponseTime" value="1.500"/>
            <param key="device.toc.initialAwareness" value="0.785"/>
            <param key="device.toc.recoveryRate" value="0.167"/>
            <param key="device.toc.tauCACCtoACC" value="1.620"/>
            <param key="device.toc.mrmDecel" value="3.000"/>
            <param key="device.toc.useColorScheme" value="true"/>
            <param key="has.ssm.device" value="true"/>
            <param key="device.ssm.measures" value="TTC"/>
            <param key="device.ssm.thresholds" value="3.000"/>
            <param key="device.ssm.range" value="50.000"/>
            <param key="device.ssm.extratime" value="5.000"/>
            <param key="device.ssm.file" value="Output-Files\SSM-L2-CV.xml"/>
            <param key="device.ssm.trajectories" value="false"/>
            <param key="device.ssm.geo" value="false"/>
        </vType>
        <vType id="L2-CV-Left-11" vClass="custom2" carFollowModel="CACC" color="yellow" tau="0.600" decel="2.258" accel="1.921" emergencyDecel="9.000" lcAssertive="1.103" actionStepLength="0.100">
            <param key="has.toc.device" value="true"/>
            <param key="device.toc.manualType" value="L0-HDV-"/>
            <param key="device.toc.automatedType" value="L2-CV-Left-"/>
            <param key="device.toc.reponseTime" value="1.500"/>
            <param key="device.toc.initialAwareness" value="0.647"/>
            <param key="device.toc.recoveryRate" value="0.393"/>
            <param key="device.toc.tauCACCtoACC" value="1.655"/>
            <param key="device.toc.mrmDecel" value="3.000"/>
            <param key="device.toc.useColorScheme" value="true"/>
            <param key="has.ssm.device" value="true"/>
            <param key="device.ssm.measures" value="TTC"/>
            <param key="device.ssm.thresholds" value="3.000"/>
            <param key="device.ssm.range" value="50.000"/>
            <param key="device.ssm.extratime" value="5.000"/>
            <param key="device.ssm.file" value="Output-Files\SSM-L2-CV.xml"/>
            <param key="device.ssm.trajectories" value="false"/>
            <param key="device.ssm.geo" value="false"/>
        </vType>
        <vType id="L2-CV-Left-12" vClass="custom2" carFollowModel="CACC" color="yellow" tau="0.600" decel="2.012" accel="1.969" emergencyDecel="9.000" lcAssertive="1.166" actionStepLength="0.100">
            <param key="has.toc.device" value="true"/>
            <param key="device.toc.manualType" value="L0-HDV-"/>
            <param key="device.toc.automatedType" value="L2-CV-Left-"/>
            <param key="device.toc.reponseTime" value="1.500"/>
            <param key="device.toc.initialAwareness" value="0.658"/>
            <param key="device.toc.recoveryRate" value="0.182"/>
            <param key="device.toc.tauCACCtoACC" value="1.564"/>
            <param key="device.toc.mrmDecel" value="3.000"/>
            <param key="device.toc.useColorScheme" value="true"/>
            <param key="has.ssm.device" value="true"/>
            <param key="device.ssm.measures" value="TTC"/>
            <param key="device.ssm.thresholds" value="3.000"/>
            <param key="device.ssm.range" value="50.000"/>
            <param key="device.ssm.extratime" value="5.000"/>
            <param key="device.ssm.file" value="Output-Files\SSM-L2-CV.xml"/>
            <param key="device.ssm.trajectories" value="false"/>
            <param key="device.ssm.geo" value="false"/>
        </vType>
        <vType id="L2-CV-Left-13" vClass="custom2" carFollowModel="CACC" color="yellow" tau="0.600" decel="3.923" accel="1.375" emergencyDecel="9.000" lcAssertive="1.226" actionStepLength="0.100">
            <param key="has.toc.device" value="true"/>
            <param key="device.toc.manualType" value="L0-HDV-"/>
            <param key="device.toc.automatedType" value="L2-CV-Left-"/>
            <param key="device.toc.reponseTime" value="1.500"/>
            <param key="device.toc.initialAwareness" value="0.975"/>
            <param key="device.toc.recoveryRate" value="0.131"/>
            <param key="device.toc.tauCACCtoACC" value="1.673"/>
            <param key="device.toc.mrmDecel" value="3.000"/>
            <param key="device.toc.useColorScheme" value="true"/>
            <param key="has.ssm.device" value="true"/>
            <param key="device.ssm.measures" value="TTC"/>
            <param key="device.ssm.thresholds" value="3.000"/>
            <param key="device.ssm.range" value="50.000"/>
            <param key="device.ssm.extratime" value="5.000"/>
            <param key="device.ssm.file" value="Output-Files\SSM-L2-CV.xml"/>
            <param key="device.ssm.trajectories" value="false"/>
            <param key="device.ssm.geo" value="false"/>
        </vType>
        <vType id="L2-CV-Left-14" vClass="custom2" carFollowModel="CACC" color="yellow" tau="0.600" decel="2.521" accel="1.077" emergencyDecel="9.000" lcAssertive="1.186" actionStepLength="0.100">
            <param key="has.toc.device" value="true"/>
            <param key="device.toc.manualType" value="L0-HDV-"/>
            <param key="device.toc.automatedType" value="L2-CV-Left-"/>
            <param key="device.toc.reponseTime" value="1.500"/>
            <param key="device.toc.initialAwareness" value="0.811"/>
            <param key="device.toc.recoveryRate" value="0.190"/>
            <param key="device.toc.tauCACCtoACC" value="1.631"/>
            <param key="device.toc.mrmDecel" value="3.000"/>
            <param key="device.toc.useColorScheme" value="true"/>
            <param key="has.ssm.device" value="true"/>
            <param key="device.ssm.measures" value="TTC"/>
            <param key="device.ssm.thresholds" value="3.000"/>
            <param key="device.ssm.range" value="50.000"/>
            <param key="device.ssm.extratime" value="5.000"/>
            <param key="device.ssm.file" value="Output-Files\SSM-L2-CV.xml"/>
            <param key="device.ssm.trajectories" value="false"/>
            <param key="device.ssm.geo" value="false"/>
        </vType>
        <vType id="L2-CV-Left-15" vClass="custom2" carFollowModel="CACC" color="yellow" tau="0.600" decel="3.404" accel="1.873" emergencyDecel="9.000" lcAssertive="1.127" actionStepLength="0.100">
            <param key="has.toc.device" value="true"/>
            <param key="device.toc.manualType" value="L0-HDV-"/>
            <param key="device.toc.automatedType" value="L2-CV-Left-"/>
            <param key="device.toc.reponseTime" value="1.500"/>
            <param key="device.toc.initialAwareness" value="0.411"/>
            <param key="device.toc.recoveryRate" value="0.224"/>
            <param key="device.toc.tauCACCtoACC" value="1.752"/>
            <param key="device.toc.mrmDecel" value="3.000"/>
            <param key="device.toc.useColorScheme" value="true"/>
            <param key="has.ssm.device" value="true"/>
            <param key="device.ssm.measures" value="TTC"/>
            <param key="device.ssm.thresholds" value="3.000"/>
            <param key="device.ssm.range" value="50.000"/>
            <param key="device.ssm.extratime" value="5.000"/>
            <param key="device.ssm.file" value="Output-Files\SSM-L2-CV.xml"/>
            <param key="device.ssm.trajectories" value="false"/>
            <param key="device.ssm.geo" value="false"/>
        </vType>
        <vType id="L2-CV-Left-16" vClass="custom2" carFollowModel="CACC" color="yellow" tau="0.600" decel="2.750" accel="1.921" emergencyDecel="9.000" lcAssertive="1.177" actionStepLength="0.100">
            <param key="has.toc.device" value="true"/>
            <param key="device.toc.manualType" value="L0-HDV-"/>
            <param key="device.toc.automatedType" value="L2-CV-Left-"/>
            <param key="device.toc.reponseTime" value="1.500"/>
            <param key="device.toc.initialAwareness" value="0.589"/>
            <param key="device.toc.recoveryRate" value="0.176"/>
            <param key="device.toc.tauCACCtoACC" value="1.279"/>
            <param key="device.toc.mrmDecel" value="3.000"/>
            <param key="device.toc.useColorScheme" value="true"/>
            <param key="has.ssm.device" value="true"/>
            <param key="device.ssm.measures" value="TTC"/>
            <param key="device.ssm.thresholds" value="3.000"/>
            <param key="device.ssm.range" value="50.000"/>
            <param key="device.ssm.extratime" value="5.000"/>
            <param key="device.ssm.file" value="Output-Files\SSM-L2-CV.xml"/>
            <param key="device.ssm.trajectories" value="false"/>
            <param key="device.ssm.geo" value="false"/>
        </vType>
        <vType id="L2-CV-Left-17" vClass="custom2" carFollowModel="CACC" color="yellow" tau="0.600" decel="2.245" accel="1.214" emergencyDecel="9.000" lcAssertive="1.175" actionStepLength="0.100">
            <param key="has.toc.device" value="true"/>
            <param key="device.toc.manualType" value="L0-HDV-"/>
            <param key="device.toc.automatedType" value="L2-CV-Left-"/>
            <param key="device.toc.reponseTime" value="1.500"/>
            <param key="device.toc.initialAwareness" value="0.675"/>
            <param key="device.toc.recoveryRate" value="0.153"/>
            <param key="device.toc.tauCACCtoACC" value="1.622"/>
            <param key="device.toc.mrmDecel" value="3.000"/>
            <param key="device.toc.useColorScheme" value="true"/>
            <param key="has.ssm.device" value="true"/>
            <param key="device.ssm.measures" value="TTC"/>
            <param key="device.ssm.thresholds" value="3.000"/>
            <param key="device.ssm.range" value="50.000"/>
            <param key="device.ssm.extratime" value="5.000"/>
            <param key="device.ssm.file" value="Output-Files\SSM-L2-CV.xml"/>
            <param key="device.ssm.trajectories" value="false"/>
            <param key="device.ssm.geo" value="false"/>
        </vType>
        <vType id="L2-CV-Left-18" vClass="custom2" carFollowModel="CACC" color="yellow" tau="0.600" decel="3.343" accel="1.882" emergencyDecel="9.000" lcAssertive="1.108" actionStepLength="0.100">
            <param key="has.toc.device" value="true"/>
            <param key="device.toc.manualType" value="L0-HDV-"/>
            <param key="device.toc.automatedType" value="L2-CV-Left-"/>
            <param key="device.toc.reponseTime" value="1.500"/>
            <param key="device.toc.initialAwareness" value="0.621"/>
            <param key="device.toc.recoveryRate" value="0.027"/>
            <param key="device.toc.tauCACCtoACC" value="1.497"/>
            <param key="device.toc.mrmDecel" value="3.000"/>
            <param key="device.toc.useColorScheme" value="true"/>
            <param key="has.ssm.device" value="true"/>
            <param key="device.ssm.measures" value="TTC"/>
            <param key="device.ssm.thresholds" value="3.000"/>
            <param key="device.ssm.range" value="50.000"/>
            <param key="device.ssm.extratime" value="5.000"/>
            <param key="device.ssm.file" value="Output-Files\SSM-L2-CV.xml"/>
            <param key="device.ssm.trajectories" value="false"/>
            <param key="device.ssm.geo" value="false"/>
        </vType>
        <vType id="L2-CV-Left-19" vClass="custom2" carFollowModel="CACC" color="yellow" tau="0.600" decel="3.032" accel="1.124" emergencyDecel="9.000" lcAssertive="1.237" actionStepLength="0.100">
            <param key="has.toc.device" value="true"/>
            <param key="device.toc.manualType" value="L0-HDV-"/>
            <param key="device.toc.automatedType" value="L2-CV-Left-"/>
            <param key="device.toc.reponseTime" value="1.500"/>
            <param key="device.toc.initialAwareness" value="0.852"/>
            <param key="device.toc.recoveryRate" value="0.325"/>
            <param key="device.toc.tauCACCtoACC" value="1.488"/>
            <param key="device.toc.mrmDecel" value="3.000"/>
            <param key="device.toc.useColorScheme" value="true"/>
            <param key="has.ssm.device" value="true"/>
            <param key="device.ssm.measures" value="TTC"/>
            <param key="device.ssm.thresholds" value="3.000"/>
            <param key="device.ssm.range" value="50.000"/>
            <param key="device.ssm.extratime" value="5.000"/>
            <param key="device.ssm.file" value="Output-Files\SSM-L2-CV.xml"/>
            <param key="device.ssm.trajectories" value="false"/>
            <param key="device.ssm.geo" value="false"/>
        </vType>
        <vType id="L2-CV-Left-20" vClass="custom2" carFollowModel="CACC" color="yellow" tau="0.600" decel="3.953" accel="1.800" emergencyDecel="9.000" lcAssertive="1.121" actionStepLength="0.100">
            <param key="has.toc.device" value="true"/>
            <param key="device.toc.manualType" value="L0-HDV-"/>
            <param key="device.toc.automatedType" value="L2-CV-Left-"/>
            <param key="device.toc.reponseTime" value="1.500"/>
            <param key="device.toc.initialAwareness" value="0.716"/>
            <param key="device.toc.recoveryRate" value="0.049"/>
            <param key="device.toc.tauCACCtoACC" value="1.576"/>
            <param key="device.toc.mrmDecel" value="3.000"/>
            <param key="device.toc.useColorScheme" value="true"/>
            <param key="has.ssm.device" value="true"/>
            <param key="device.ssm.measures" value="TTC"/>
            <param key="device.ssm.thresholds" value="3.000"/>
            <param key="device.ssm.range" value="50.000"/>
            <param key="device.ssm.extratime" value="5.000"/>
            <param key="device.ssm.file" value="Output-Files\SSM-L2-CV.xml"/>
            <param key="device.ssm.trajectories" value="false"/>
            <param key="device.ssm.geo" value="false"/>
        </vType>
        <vType id="L2-CV-Left-21" vClass="custom2" carFollowModel="CACC" color="yellow" tau="0.600" decel="2.653" accel="1.318" emergencyDecel="9.000" lcAssertive="1.174" actionStepLength="0.100">
            <param key="has.toc.device" value="true"/>
            <param key="device.toc.manualType" value="L0-HDV-"/>
            <param key="device.toc.automatedType" value="L2-CV-Left-"/>
            <param key="device.toc.reponseTime" value="1.500"/>
            <param key="device.toc.initialAwareness" value="0.494"/>
            <param key="device.toc.recoveryRate" value="0.145"/>
            <param key="device.toc.tauCACCtoACC" value="1.540"/>
            <param key="device.toc.mrmDecel" value="3.000"/>
            <param key="device.toc.useColorScheme" value="true"/>
            <param key="has.ssm.device" value="true"/>
            <param key="device.ssm.measures" value="TTC"/>
            <param key="device.ssm.thresholds" value="3.000"/>
            <param key="device.ssm.range" value="50.000"/>
            <param key="device.ssm.extratime" value="5.000"/>
            <param key="device.ssm.file" value="Output-Files\SSM-L2-CV.xml"/>
            <param key="device.ssm.trajectories" value="false"/>
            <param key="device.ssm.geo" value="false"/>
        </vType>
        <vType id="L2-CV-Left-22" vClass="custom2" carFollowModel="CACC" color="yellow" tau="0.600" decel="2.386" accel="1.387" emergencyDecel="9.000" lcAssertive="1.106" actionStepLength="0.100">
            <param key="has.toc.device" value="true"/>
            <param key="device.toc.manualType" value="L0-HDV-"/>
            <param key="device.toc.automatedType" value="L2-CV-Left-"/>
            <param key="device.toc.reponseTime" value="1.500"/>
            <param key="device.toc.initialAwareness" value="0.661"/>
            <param key="device.toc.recoveryRate" value="0.194"/>
            <param key="device.toc.tauCACCtoACC" value="1.543"/>
            <param key="device.toc.mrmDecel" value="3.000"/>