<additional xmlns:xsi="http://www.w3.org/2001/XMLSchema-instance" xsi:noNamespaceSchemaLocation="http://sumo.dlr.de/xsd/additional_file.xsd">
    
    
    
    
    
    
    
    
    
    
    
    
    
    
    
    
    
    
    
    
    
    
    
    
    
    
    
    
    
    
    
    
    
    
    
    
    
    
    
    
    
    
    
    
    
    
    
    
    
    
    
    
    
    
    
    
    
    
    
    
    
    
    
    
    
    
    
    
    
    
    
    
    
    
    
    
    
    
    
    
    
    
    
    
    
    
    
    
    
    
    
    
    
    
    
    
    
    
    
    
    
    
    
    
    
    
    
    
    
    
    
    
    
    
    
    
    
    
    
    
    
    
    
    
    
    
    
    
    
    
    
    
    
    
    
    
    
    
    
    
    
    
    
    
    
    
    
    
    
    
    
    
    
    
    
    
    
    
    
    
    
    
    
    
    
    
    
    
    
    
    
    
    
    
    
    
    
    
    
    
    
    
    
    
    
    
    
    
    
    
    
    
    
    
    
    
    
    
    
    
    
    
    
    
    
    
    
    
    
    
    
    
    
    
    
    
    
    
    
    
    
    
    
    
    
    
    
    
    
    
    
    
    
    
    
    
    
    
    
    
    
    
    
    
    
    
    
    
    
    
    
    
    
    
    
    
    
    
    
    
    
    
    
    
    
    
    
    
    
    
    
    
    
    
    
    
    
    
    <vTypeDistribution id="L4-AV-Left-">
        <vType id="L4-AV-Left-0" vClass="custom2" carFollowModel="ACC" color="orange" tau="0.600" decel="3.245" accel="1.003" emergencyDecel="9.000" lcAssertive="0.875" actionStepLength="0.100">
            <param key="has.toc.device" value="true"/>
            <param key="device.toc.manualType" value="L0-HDV-"/>
            <param key="device.toc.automatedType" value="L4-AV-Left-"/>
            <param key="device.toc.reponseTime" value="5.217"/>
            <param key="device.toc.initialAwareness" value="0.206"/>
            <param key="device.toc.recoveryRate" value="0.307"/>
            <param key="device.toc.tauCACCtoACC" value="1.266"/>
            <param key="device.toc.ogNewTimeHeadway" value="1.600"/>
            <param key="device.toc.ogChangeRate" value="0.800"/>
            <param key="device.toc.mrmDecel" value="3.000"/>
            <param key="device.toc.useColorScheme" value="true"/>
            <param key="device.toc.dynamicToCThreshold" value="9.869"/>
            <param key="has.ssm.device" value="true"/>
            <param key="device.ssm.measures" value="TTC DRAC PET"/>
            <param key="device.ssm.thresholds" value="3.0 5.0 2.0"/>
            <param key="device.ssm.range" value="50.000"/>
            <param key="device.ssm.extratime" value="5.000"/>
            <param key="device.ssm.file" value="Output-Files\SSM-L4-AV.xml"/>
            <param key="device.ssm.trajectories" value="false"/>
            <param key="device.ssm.geo" value="false"/>
        </vType>
        <vType id="L4-AV-Left-1" vClass="custom2" carFollowModel="ACC" color="orange" tau="0.600" decel="2.675" accel="1.035" emergencyDecel="9.000" lcAssertive="0.880" actionStepLength="0.100">
            <param key="has.toc.device" value="true"/>
            <param key="device.toc.manualType" value="L0-HDV-"/>
            <param key="device.toc.automatedType" value="L4-AV-Left-"/>
            <param key="device.toc.reponseTime" value="8.510"/>
            <param key="device.toc.initialAwareness" value="0.542"/>
            <param key="device.toc.recoveryRate" value="0.184"/>
            <param key="device.toc.tauCACCtoACC" value="1.312"/>
            <param key="device.toc.ogNewTimeHeadway" value="1.600"/>
            <param key="device.toc.ogChangeRate" value="0.800"/>
            <param key="device.toc.mrmDecel" value="3.000"/>
            <param key="device.toc.useColorScheme" value="true"/>
            <param key="device.toc.dynamicToCThreshold" value="8.526"/>
            <param key="has.ssm.device" value="true"/>
            <param key="device.ssm.measures" value="TTC DRAC PET"/>
            <param key="device.ssm.thresholds" value="3.0 5.0 2.0"/>
            <param key="device.ssm.range" value="50.000"/>
            <param key="device.ssm.extratime" value="5.000"/>
            <param key="device.ssm.file" value="Output-Files\SSM-L4-AV.xml"/>
            <param key="device.ssm.trajectories" value="false"/>
            <param key="device.ssm.geo" value="false"/>
        </vType>
        <vType id="L4-AV-Left-2" vClass="custom2" carFollowModel="ACC" color="orange" tau="0.600" decel="3.366" accel="1.218" emergencyDecel="9.000" lcAssertive="0.863" actionStepLength="0.100">
            <param key="has.toc.device" value="true"/>
            <param key="device.toc.manualType" value="L0-HDV-"/>
            <param key="device.toc.automatedType" value="L4-AV-Left-"/>
            <param key="device.toc.reponseTime" value="1.230"/>
            <param key="device.toc.initialAwareness" value="0.217"/>
            <param key="device.toc.recoveryRate" value="0.281"/>
            <param key="device.toc.tauCACCtoACC" value="1.414"/>
            <param key="device.toc.ogNewTimeHeadway" value="1.600"/>
            <param key="device.toc.ogChangeRate" value="0.800"/>
            <param key="device.toc.mrmDecel" value="3.000"/>
            <param key="device.toc.useColorScheme" value="true"/>
            <param key="device.toc.dynamicToCThreshold" value="9.471"/>
            <param key="has.ssm.device" value="true"/>
            <param key="device.ssm.measures" value="TTC DRAC PET"/>
            <param key="device.ssm.thresholds" value="3.0 5.0 2.0"/>
            <param key="device.ssm.range" value="50.000"/>
            <param key="device.ssm.extratime" value="5.000"/>
            <param key="device.ssm.file" value="Output-Files\SSM-L4-AV.xml"/>
            <param key="device.ssm.trajectories" value="false"/>
            <param key="device.ssm.geo" value="false"/>
        </vType>
        <vType id="L4-AV-Left-3" vClass="custom2" carFollowModel="ACC" color="orange" tau="0.600" decel="3.441" accel="0.965" emergencyDecel="9.000" lcAssertive="0.853" actionStepLength="0.100">
            <param key="has.toc.device" value="true"/>
            <param key="device.toc.manualType" value="L0-HDV-"/>
            <param key="device.toc.automatedType" value="L4-AV-Left-"/>
            <param key="device.toc.reponseTime" value="8.411"/>
            <param key="device.toc.initialAwareness" value="0.395"/>
            <param key="device.toc.recoveryRate" value="0.070"/>
            <param key="device.toc.tauCACCtoACC" value="1.673"/>
            <param key="device.toc.ogNewTimeHeadway" value="1.600"/>
            <param key="device.toc.ogChangeRate" value="0.800"/>
            <param key="device.toc.mrmDecel" value="3.000"/>
            <param key="device.toc.useColorScheme" value="true"/>
            <param key="device.toc.dynamicToCThreshold" value="8.395"/>
            <param key="has.ssm.device" value="true"/>
            <param key="device.ssm.measures" value="TTC DRAC PET"/>
            <param key="device.ssm.thresholds" value="3.0 5.0 2.0"/>
            <param key="device.ssm.range" value="50.000"/>
            <param key="device.ssm.extratime" value="5.000"/>
            <param key="device.ssm.file" value="Output-Files\SSM-L4-AV.xml"/>
            <param key="device.ssm.trajectories" value="false"/>
            <param key="device.ssm.geo" value="false"/>
        </vType>
        <vType id="L4-AV-Left-4" vClass="custom2" carFollowModel="ACC" color="orange" tau="0.600" decel="3.673" accel="1.501" emergencyDecel="9.000" lcAssertive="0.831" actionStepLength="0.100">
            <param key="has.toc.device" value="true"/>
            <param key="device.toc.manualType" value="L0-HDV-"/>
            <param key="device.toc.automatedType" value="L4-AV-Left-"/>
            <param key="device.toc.reponseTime" value="5.952"/>
            <param key="device.toc.initialAwareness" value="0.694"/>
            <param key="device.toc.recoveryRate" value="0.352"/>
            <param key="device.toc.tauCACCtoACC" value="1.430"/>
            <param key="device.toc.ogNewTimeHeadway" value="1.600"/>
            <param key="device.toc.ogChangeRate" value="0.800"/>
            <param key="device.toc.mrmDecel" value="3.000"/>
            <param key="device.toc.useColorScheme" value="true"/>
            <param key="device.toc.dynamicToCThreshold" value="8.309"/>
            <param key="has.ssm.device" value="true"/>
            <param key="device.ssm.measures" value="TTC DRAC PET"/>
            <param key="device.ssm.thresholds" value="3.0 5.0 2.0"/>
            <param key="device.ssm.range" value="50.000"/>
            <param key="device.ssm.extratime" value="5.000"/>
            <param key="device.ssm.file" value="Output-Files\SSM-L4-AV.xml"/>
            <param key="device.ssm.trajectories" value="false"/>
            <param key="device.ssm.geo" value="false"/>
        </vType>
        <vType id="L4-AV-Left-5" vClass="custom2" carFollowModel="ACC" color="orange" tau="0.600" decel="3.523" accel="1.406" emergencyDecel="9.000" lcAssertive="0.847" actionStepLength="0.100">
            <param key="has.toc.device" value="true"/>
            <param key="device.toc.manualType" value="L0-HDV-"/>
            <param key="device.toc.automatedType" value="L4-AV-Left-"/>
            <param key="device.toc.reponseTime" value="6.012"/>
            <param key="device.toc.initialAwareness" value="0.264"/>
            <param key="device.toc.recoveryRate" value="0.228"/>
            <param key="device.toc.tauCACCtoACC" value="1.332"/>
            <param key="device.toc.ogNewTimeHeadway" value="1.600"/>
            <param key="device.toc.ogChangeRate" value="0.800"/>
            <param key="device.toc.mrmDecel" value="3.000"/>
            <param key="device.toc.useColorScheme" value="true"/>
            <param key="device.toc.dynamicToCThreshold" value="8.663"/>
            <param key="has.ssm.device" value="true"/>
            <param key="device.ssm.measures" value="TTC DRAC PET"/>
            <param key="device.ssm.thresholds" value="3.0 5.0 2.0"/>
            <param key="device.ssm.range" value="50.000"/>
            <param key="device.ssm.extratime" value="5.000"/>
            <param key="device.ssm.file" value="Output-Files\SSM-L4-AV.xml"/>
            <param key="device.ssm.trajectories" value="false"/>
            <param key="device.ssm.geo" value="false"/>
        </vType>
        <vType id="L4-AV-Left-6" vClass="custom2" carFollowModel="ACC" color="orange" tau="0.600" decel="2.406" accel="0.935" emergencyDecel="9.000" lcAssertive="0.885" actionStepLength="0.100">
            <param key="has.toc.device" value="true"/>
            <param key="device.toc.manualType" value="L0-HDV-"/>
            <param key="device.toc.automatedType" value="L4-AV-Left-"/>
            <param key="device.toc.reponseTime" value="5.054"/>
            <param key="device.toc.initialAwareness" value="0.613"/>
            <param key="device.toc.recoveryRate" value="0.128"/>
            <param key="device.toc.tauCACCtoACC" value="1.451"/>
            <param key="device.toc.ogNewTimeHeadway" value="1.600"/>
            <param key="device.toc.ogChangeRate" value="0.800"/>
            <param key="device.toc.mrmDecel" value="3.000"/>
            <param key="device.toc.useColorScheme" value="true"/>
            <param key="device.toc.dynamicToCThreshold" value="9.602"/>
            <param key="has.ssm.device" value="true"/>
            <param key="device.ssm.measures" value="TTC DRAC PET"/>
            <param key="device.ssm.thresholds" value="3.0 5.0 2.0"/>
            <param key="device.ssm.range" value="50.000"/>
            <param key="device.ssm.extratime" value="5.000"/>
            <param key="device.ssm.file" value="Output-Files\SSM-L4-AV.xml"/>
            <param key="device.ssm.trajectories" value="false"/>
            <param key="device.ssm.geo" value="false"/>
        </vType>
        <vType id="L4-AV-Left-7" vClass="custom2" carFollowModel="ACC" color="orange" tau="0.600" decel="2.747" accel="1.314" emergencyDecel="9.000" lcAssertive="0.836" actionStepLength="0.100">
            <param key="has.toc.device" value="true"/>
            <param key="device.toc.manualType" value="L0-HDV-"/>
            <param key="device.toc.automatedType" value="L4-AV-Left-"/>
            <param key="device.toc.reponseTime" value="5.686"/>
            <param key="device.toc.initialAwareness" value="0.629"/>
            <param key="device.toc.recoveryRate" value="0.247"/>
            <param key="device.toc.tauCACCtoACC" value="1.464"/>
            <param key="device.toc.ogNewTimeHeadway" value="1.600"/>
            <param key="device.toc.ogChangeRate" value="0.800"/>
            <param key="device.toc.mrmDecel" value="3.000"/>
            <param key="device.toc.useColorScheme" value="true"/>
            <param key="device.toc.dynamicToCThreshold" value="8.067"/>
            <param key="has.ssm.device" value="true"/>
            <param key="device.ssm.measures" value="TTC DRAC PET"/>
            <param key="device.ssm.thresholds" value="3.0 5.0 2.0"/>
            <param key="device.ssm.range" value="50.000"/>
            <param key="device.ssm.extratime" value="5.000"/>
            <param key="device.ssm.file" value="Output-Files\SSM-L4-AV.xml"/>
            <param key="device.ssm.trajectories" value="false"/>
            <param key="device.ssm.geo" value="false"/>
        </vType>
        <vType id="L4-AV-Left-8" vClass="custom2" carFollowModel="ACC" color="orange" tau="0.600" decel="2.866" accel="1.840" emergencyDecel="9.000" lcAssertive="0.833" actionStepLength="0.100">
            <param key="has.toc.device" value="true"/>
            <param key="device.toc.manualType" value="L0-HDV-"/>
            <param key="device.toc.automatedType" value="L4-AV-Left-"/>
            <param key="device.toc.reponseTime" value="6.089"/>
            <param key="device.toc.initialAwareness" value="0.458"/>
            <param key="device.toc.recoveryRate" value="0.162"/>
            <param key="device.toc.tauCACCtoACC" value="1.600"/>
            <param key="device.toc.ogNewTimeHeadway" value="1.600"/>
            <param key="device.toc.ogChangeRate" value="0.800"/>
            <param key="device.toc.mrmDecel" value="3.000"/>
            <param key="device.toc.useColorScheme" value="true"/>
            <param key="device.toc.dynamicToCThreshold" value="8.742"/>
            <param key="has.ssm.device" value="true"/>
            <param key="device.ssm.measures" value="TTC DRAC PET"/>
            <param key="device.ssm.thresholds" value="3.0 5.0 2.0"/>
            <param key="device.ssm.range" value="50.000"/>
            <param key="device.ssm.extratime" value="5.000"/>
            <param key="device.ssm.file" value="Output-Files\SSM-L4-AV.xml"/>
            <param key="device.ssm.trajectories" value="false"/>
            <param key="device.ssm.geo" value="false"/>
        </vType>
        <vType id="L4-AV-Left-9" vClass="custom2" carFollowModel="ACC" color="orange" tau="0.600" decel="3.888" accel="1.926" emergencyDecel="9.000" lcAssertive="0.843" actionStepLength="0.100">
            <param key="has.toc.device" value="true"/>
            <param key="device.toc.manualType" value="L0-HDV-"/>
            <param key="device.toc.automatedType" value="L4-AV-Left-"/>
            <param key="device.toc.reponseTime" value="6.727"/>
            <param key="device.toc.initialAwareness" value="0.003"/>
            <param key="device.toc.recoveryRate" value="0.176"/>
            <param key="device.toc.tauCACCtoACC" value="1.584"/>
            <param key="device.toc.ogNewTimeHeadway" value="1.600"/>
            <param key="device.toc.ogChangeRate" value="0.800"/>
            <param key="device.toc.mrmDecel" value="3.000"/>
            <param key="device.toc.useColorScheme" value="true"/>
            <param key="device.toc.dynamicToCThreshold" value="8.365"/>
            <param key="has.ssm.device" value="true"/>
            <param key="device.ssm.measures" value="TTC DRAC PET"/>
            <param key="device.ssm.thresholds" value="3.0 5.0 2.0"/>
            <param key="device.ssm.range" value="50.000"/>
            <param key="device.ssm.extratime" value="5.000"/>
            <param key="device.ssm.file" value="Output-Files\SSM-L4-AV.xml"/>
            <param key="device.ssm.trajectories" value="false"/>
            <param key="device.ssm.geo" value="false"/>
        </vType>
        <vType id="L4-AV-Left-10" vClass="custom2" carFollowModel="ACC" color="orange" tau="0.600" decel="2.070" accel="1.234" emergencyDecel="9.000" lcAssertive="0.889" actionStepLength="0.100">
            <param key="has.toc.device" value="true"/>
            <param key="device.toc.manualType" value="L0-HDV-"/>
            <param key="device.toc.automatedType" value="L4-AV-Left-"/>
            <param key="device.toc.reponseTime" value="7.092"/>
            <param key="device.toc.initialAwareness" value="0.073"/>
            <param key="device.toc.recoveryRate" value="0.151"/>
            <param key="device.toc.tauCACCtoACC" value="1.594"/>
            <param key="device.toc.ogNewTimeHeadway" value="1.600"/>
            <param key="device.toc.ogChangeRate" value="0.800"/>
            <param key="device.toc.mrmDecel" value="3.000"/>
            <param key="device.toc.useColorScheme" value="true"/>
            <param key="device.toc.dynamicToCThreshold" value="9.156"/>
            <param key="has.ssm.device" value="true"/>
            <param key="device.ssm.measures" value="TTC DRAC PET"/>
            <param key="device.ssm.thresholds" value="3.0 5.0 2.0"/>
            <param key="device.ssm.range" value="50.000"/>
            <param key="device.ssm.extratime" value="5.000"/>
            <param key="device.ssm.file" value="Output-Files\SSM-L4-AV.xml"/>
            <param key="device.ssm.trajectories" value="false"/>
            <param key="device.ssm.geo" value="false"/>
        </vType>
        <vType id="L4-AV-Left-11" vClass="custom2" carFollowModel="ACC" color="orange" tau="0.600" decel="2.792" accel="1.319" emergencyDecel="9.000" lcAssertive="0.856" actionStepLength="0.100">
            <param key="has.toc.device" value="true"/>
            <param key="device.toc.manualType" value="L0-HDV-"/>
            <param key="device.toc.automatedType" value="L4-AV-Left-"/>
            <param key="device.toc.reponseTime" value="7.392"/>
            <param key="device.toc.initialAwareness" value="0.419"/>
            <param key="device.toc.recoveryRate" value="0.402"/>
            <param key="device.toc.tauCACCtoACC" value="1.775"/>
            <param key="device.toc.ogNewTimeHeadway" value="1.600"/>
            <param key="device.toc.ogChangeRate" value="0.800"/>
            <param key="device.toc.mrmDecel" value="3.000"/>
            <param key="device.toc.useColorScheme" value="true"/>
            <param key="device.toc.dynamicToCThreshold" value="8.654"/>
            <param key="has.ssm.device" value="true"/>
            <param key="device.ssm.measures" value="TTC DRAC PET"/>
            <param key="device.ssm.thresholds" value="3.0 5.0 2.0"/>
            <param key="device.ssm.range" value="50.000"/>
            <param key="device.ssm.extratime" value="5.000"/>
            <param key="device.ssm.file" value="Output-Files\SSM-L4-AV.xml"/>
            <param key="device.ssm.trajectories" value="false"/>
            <param key="device.ssm.geo" value="false"/>
        </vType>
        <vType id="L4-AV-Left-12" vClass="custom2" carFollowModel="ACC" color="orange" tau="0.600" decel="3.866" accel="1.021" emergencyDecel="9.000" lcAssertive="0.842" actionStepLength="0.100">
            <param key="has.toc.device" value="true"/>
            <param key="device.toc.manualType" value="L0-HDV-"/>
            <param key="device.toc.automatedType" value="L4-AV-Left-"/>
            <param key="device.toc.reponseTime" value="6.991"/>
            <param key="device.toc.initialAwareness" value="0.588"/>
            <param key="device.toc.recoveryRate" value="0.240"/>
            <param key="device.toc.tauCACCtoACC" value="1.631"/>
            <param key="device.toc.ogNewTimeHeadway" value="1.600"/>
            <param key="device.toc.ogChangeRate" value="0.800"/>
            <param key="device.toc.mrmDecel" value="3.000"/>
            <param key="device.toc.useColorScheme" value="true"/>
            <param key="device.toc.dynamicToCThreshold" value="9.556"/>
            <param key="has.ssm.device" value="true"/>
            <param key="device.ssm.measures" value="TTC DRAC PET"/>
            <param key="device.ssm.thresholds" value="3.0 5.0 2.0"/>
            <param key="device.ssm.range" value="50.000"/>
            <param key="device.ssm.extratime" value="5.000"/>
            <param key="device.ssm.file" value="Output-Files\SSM-L4-AV.xml"/>
            <param key="device.ssm.trajectories" value="false"/>
            <param key="device.ssm.geo" value="false"/>
        </vType>
        <vType id="L4-AV-Left-13" vClass="custom2" carFollowModel="ACC" color="orange" tau="0.600" decel="3.404" accel="1.873" emergencyDecel="9.000" lcAssertive="0.841" actionStepLength="0.100">
            <param key="has.toc.device" value="true"/>
            <param key="device.toc.manualType" value="L0-HDV-"/>
            <param key="device.toc.automatedType" value="L4-AV-Left-"/>
            <param key="device.toc.reponseTime" value="2.538"/>
            <param key="device.toc.initialAwareness" value="0.509"/>
            <param key="device.toc.recoveryRate" value="0.376"/>
            <param key="device.toc.tauCACCtoACC" value="1.450"/>
            <param key="device.toc.ogNewTimeHeadway" value="1.600"/>
            <param key="device.toc.ogChangeRate" value="0.800"/>
            <param key="device.toc.mrmDecel" value="3.000"/>
            <param key="device.toc.useColorScheme" value="true"/>
            <param key="device.toc.dynamicToCThreshold" value="9.210"/>
            <param key="has.ssm.device" value="true"/>
            <param key="device.ssm.measures" value="TTC DRAC PET"/>
            <param key="device.ssm.thresholds" value="3.0 5.0 2.0"/>
            <param key="device.ssm.range" value="50.000"/>
            <param key="device.ssm.extratime" value="5.000"/>
            <param key="device.ssm.file" value="Output-Files\SSM-L4-AV.xml"/>
            <param key="device.ssm.trajectories" value="false"/>
            <param key="device.ssm.geo" value="false"/>
        </vType>
        <vType id="L4-AV-Left-14" vClass="custom2" carFollowModel="ACC" color="orange" tau="0.600" decel="3.539" accel="0.947" emergencyDecel="9.000" lcAssertive="0.845" actionStepLength="0.100">
            <param key="has.toc.device" value="true"/>
            <param key="device.toc.manualType" value="L0-HDV-"/>
            <param key="device.toc.automatedType" value="L4-AV-Left-"/>
            <param key="device.toc.reponseTime" value="3.238"/>
            <param key="device.toc.initialAwareness" value="0.899"/>
            <param key="device.toc.recoveryRate" value="0.174"/>
            <param key="device.toc.tauCACCtoACC" value="1.443"/>
            <param key="device.toc.ogNewTimeHeadway" value="1.600"/>
            <param key="device.toc.ogChangeRate" value="0.800"/>
            <param key="device.toc.mrmDecel" value="3.000"/>
            <param key="device.toc.useColorScheme" value="true"/>
            <param key="device.toc.dynamicToCThreshold" value="9.248"/>
            <param key="has.ssm.device" value="true"/>
            <param key="device.ssm.measures" value="TTC DRAC PET"/>
            <param key="device.ssm.thresholds" value="3.0 5.0 2.0"/>
            <param key="device.ssm.range" value="50.000"/>
            <param key="device.ssm.extratime" value="5.000"/>
            <param key="device.ssm.file" value="Output-Files\SSM-L4-AV.xml"/>
            <param key="device.ssm.trajectories" value="false"/>
            <param key="device.ssm.geo" value="false"/>
        </vType>
        <vType id="L4-AV-Left-15" vClass="custom2" carFollowModel="ACC" color="orange" tau="0.600" decel="2.874" accel="1.035" emergencyDecel="9.000" lcAssertive="0.862" actionStepLength="0.100">
            <param key="has.toc.device" value="true"/>
            <param key="device.toc.manualType" value="L0-HDV-"/>
            <param key="device.toc.automatedType" value="L4-AV-Left-"/>
            <param key="device.toc.reponseTime" value="2.486"/>
            <param key="device.toc.initialAwareness" value="0.536"/>
            <param key="device.toc.recoveryRate" value="0.470"/>
            <param key="device.toc.tauCACCtoACC" value="1.576"/>
            <param key="device.toc.ogNewTimeHeadway" value="1.600"/>
            <param key="device.toc.ogChangeRate" value="0.800"/>
            <param key="device.toc.mrmDecel" value="3.000"/>
            <param key="device.toc.useColorScheme" value="true"/>
            <param key="device.toc.dynamicToCThreshold" value="8.583"/>
            <param key="has.ssm.device" value="true"/>
            <param key="device.ssm.measures" value="TTC DRAC PET"/>
            <param key="device.ssm.thresholds" value="3.0 5.0 2.0"/>
            <param key="device.ssm.range" value="50.000"/>
            <param key="device.ssm.extratime" value="5.000"/>
            <param key="device.ssm.file" value="Output-Files\SSM-L4-AV.xml"/>
            <param key="device.ssm.trajectories" value="false"/>
            <param key="device.ssm.geo" value="false"/>
        </vType>
        <vType id="L4-AV-Left-16" vClass="custom2" carFollowModel="ACC" color="orange" tau="0.600" decel="2.604" accel="1.487" emergencyDecel="9.000" lcAssertive="0.887" actionStepLength="0.100">
            <param key="has.toc.device" value="true"/>
            <param key="device.toc.manualType" value="L0-HDV-"/>
            <param key="device.toc.automatedType" value="L4-AV-Left-"/>
            <param key="device.toc.reponseTime" value="3.093"/>
            <param key="device.toc.initialAwareness" value="0.458"/>
            <param key="device.toc.recoveryRate" value="0.212"/>
            <param key="device.toc.tauCACCtoACC" value="2.156"/>
            <param key="device.toc.ogNewTimeHeadway" value="1.600"/>
            <param key="device.toc.ogChangeRate" value="0.800"/>
            <param key="device.toc.mrmDecel" value="3.000"/>
            <param key="device.toc.useColorScheme" value="true"/>
            <param key="device.toc.dynamicToCThreshold" value="9.867"/>
            <param key="has.ssm.device" value="true"/>
            <param key="device.ssm.measures" value="TTC DRAC PET"/>
            <param key="device.ssm.thresholds" value="3.0 5.0 2.0"/>
            <param key="device.ssm.range" value="50.000"/>
            <param key="device.ssm.extratime" value="5.000"/>
            <param key="device.ssm.file" value="Output-Files\SSM-L4-AV.xml"/>
            <param key="device.ssm.trajectories" value="false"/>
            <param key="device.ssm.geo" value="false"/>
        </vType>
        <vType id="L4-AV-Left-17" vClass="custom2" carFollowModel="ACC" color="orange" tau="0.600" decel="3.760" accel="1.441" emergencyDecel="9.000" lcAssertive="0.826" actionStepLength="0.100">
            <param key="has.toc.device" value="true"/>
            <param key="device.toc.manualType" value="L0-HDV-"/>
            <param key="device.toc.automatedType" value="L4-AV-Left-"/>
            <param key="device.toc.reponseTime" value="7.453"/>
            <param key="device.toc.initialAwareness" value="0.525"/>
            <param key="device.toc.recoveryRate" value="0.149"/>
            <param key="device.toc.tauCACCtoACC" value="1.385"/>
            <param key="device.toc.ogNewTimeHeadway" value="1.600"/>
            <param key="device.toc.ogChangeRate" value="0.800"/>
            <param key="device.toc.mrmDecel" value="3.000"/>
            <param key="device.toc.useColorScheme" value="true"/>
            <param key="device.toc.dynamicToCThreshold" value="9.040"/>
            <param key="has.ssm.device" value="true"/>
            <param key="device.ssm.measures" value="TTC DRAC PET"/>
            <param key="device.ssm.thresholds" value="3.0 5.0 2.0"/>
            <param key="device.ssm.range" value="50.000"/>
            <param key="device.ssm.extratime" value="5.000"/>
            <param key="device.ssm.file" value="Output-Files\SSM-L4-AV.xml"/>
            <param key="device.ssm.trajectories" value="false"/>
            <param key="device.ssm.geo" value="false"/>
        </vType>
        <vType id="L4-AV-Left-18" vClass="custom2" carFollowModel="ACC" color="orange" tau="0.600" decel="3.378" accel="1.153" emergencyDecel="9.000" lcAssertive="0.846" actionStepLength="0.100">
            <param key="has.toc.device" value="true"/>
            <param key="device.toc.manualType" value="L0-HDV-"/>
            <param key="device.toc.automatedType" value="L4-AV-Left-"/>
            <param key="device.toc.reponseTime" value="2.549"/>
            <param key="device.toc.initialAwareness" value="0.568"/>
            <param key="device.toc.recoveryRate" value="0.147"/>
            <param key="device.toc.tauCACCtoACC" value="1.390"/>
            <param key="device.toc.ogNewTimeHeadway" value="1.600"/>
            <param key="device.toc.ogChangeRate" value="0.800"/>
            <param key="device.toc.mrmDecel" value="3.000"/>
            <param key="device.toc.useColorScheme" value="true"/>
            <param key="device.toc.dynamicToCThreshold" value="9.100"/>
            <param key="has.ssm.device" value="true"/>
            <param key="device.ssm.measures" value="TTC DRAC PET"/>
            <param key="device.ssm.thresholds" value="3.0 5.0 2.0"/>