<additional xmlns:xsi="http://www.w3.org/2001/XMLSchema-instance" xsi:noNamespaceSchemaLocation="http://sumo.dlr.de/xsd/additional_file.xsd">
    
    
    
    
    
    
    
    
    
    
    
    
    
    
    
    
    
    
    
    
    
    
    
    
    
    
    
    
    
    
    
    
    
    
    
    
    
    
    
    
    
    
    
    
    
    
    
    
    
    
    
    
    
    
    
    
    
    
    
    
    
    
    
    
    
    
    
    
    
    
    
    
    
    
    
    
    
    
    
    
    
    
    
    
    
    
    
    
    
    
    
    
    
    
    
    
    
    
    
    
    
    
    
    
    
    
    
    
    
    
    
    
    
    
    
    
    
    
    
    
    
    
    
    
    
    
    
    
    
    
    
    
    
    
    
    
    
    
    
    
    
    
    
    
    
    
    
    
    
    
    
    
    
    
    
    
    
    
    
    
    
    
    
    
    
    
    
    
    
    
    
    
    
    
    
    
    
    
    
    
    
    
    
    
    
    
    
    
    
    
    
    
    
    
    
    
    
    
    
    
    
    
    
    
    
    
    
    
    
    


    
    
    
    
    
    
    
    
    
    
    
    
    
    
    
    
    
    
    
    
    
    
    
    
    
    
    
    
    
    
    
    
    
    
    
    
    
    
    
    
    
    
    
    
    
    
    
    
    
    
    
    
    
    
    
    
    
    
    
    
    
    
    
    
    
    
    
    
    
    
    
    
    
    
    
    
    
    
    
    
    
    
    
    
    
    
    
    
    
    
    
    
    
    
    
    
    
    
    
    
    
    
    
    
    
    
    
    
    
    
    
    
    
    
    
    
    
    
    
    
    
    
    
    
    
    
    
    
    
    
    
    
    
    
    
    
    
    
    
    
    
    
    
    
    
    
    
    
    
    
    
    
    
    
    
    
    
    
    
    
    
    
    
    
    
    
    
    
    
    
    
    
    
    
    
    
    
    
    
    
    
    
    
    
    
    
    
    
    
    
    
    
    
    
    
    
    
    
    
    
    
    
    
    
    
    
    
    
    
    <vTypeDistribution id="L4-CV-Left-">
        <vType id="L4-CV-Left-0" carFollowModel="CACC" color="blue" vClass="custom2" tau="0.600" decel="3.245" accel="1.003" emergencyDecel="9.000" actionStepLength="0.100" lcAssertive="0.875">
            <param key="has.toc.device" value="true"/>
            <param key="device.toc.automatedType" value="L4-CV-Left-"/>
            <param key="device.toc.manualType" value="L0-HDV-"/>
            <param key="device.toc.responseTime" value="5.217"/>
            <param key="device.toc.initialAwareness" value="0.010"/>
            <param key="device.toc.recoveryRate" value="0.152"/>
            <param key="device.toc.tauCACCtoACC" value="1.613"/>
            <param key="device.toc.ogNewTimeHeadway" value="1.600"/>
            <param key="device.toc.ogChangeRate" value="0.800"/>
            <param key="device.toc.mrmDecel" value="3.000"/>
            <param key="device.toc.useColorScheme" value="true"/>
            <param key="has.ssm.device" value="true"/>
            <param key="device.ssm.measures" value="TTC DRAC PET"/>
            <param key="device.ssm.thresholds" value="3.0 5.0 2.0"/>
            <param key="device.ssm.range" value="50.000"/>
            <param key="device.ssm.extratime" value="5.000"/>
            <param key="device.ssm.file" value="Output-Files\SSM-L4-CV.xml"/>
            <param key="device.ssm.trajectories" value="false"/>
            <param key="device.ssm.geo" value="false"/>
        </vType>
        <vType id="L4-CV-Left-1" carFollowModel="CACC" color="blue" vClass="custom2" tau="0.600" decel="2.675" accel="1.035" emergencyDecel="9.000" actionStepLength="0.100" lcAssertive="0.880">
            <param key="has.toc.device" value="true"/>
            <param key="device.toc.automatedType" value="L4-CV-Left-"/>
            <param key="device.toc.manualType" value="L0-HDV-"/>
            <param key="device.toc.responseTime" value="8.510"/>
            <param key="device.toc.initialAwareness" value="0.010"/>
            <param key="device.toc.recoveryRate" value="0.287"/>
            <param key="device.toc.tauCACCtoACC" value="1.369"/>
            <param key="device.toc.ogNewTimeHeadway" value="1.600"/>
            <param key="device.toc.ogChangeRate" value="0.800"/>
            <param key="device.toc.mrmDecel" value="3.000"/>
            <param key="device.toc.useColorScheme" value="true"/>
            <param key="has.ssm.device" value="true"/>
            <param key="device.ssm.measures" value="TTC DRAC PET"/>
            <param key="device.ssm.thresholds" value="3.0 5.0 2.0"/>
            <param key="device.ssm.range" value="50.000"/>
            <param key="device.ssm.extratime" value="5.000"/>
            <param key="device.ssm.file" value="Output-Files\SSM-L4-CV.xml"/>
            <param key="device.ssm.trajectories" value="false"/>
            <param key="device.ssm.geo" value="false"/>
        </vType>
        <vType id="L4-CV-Left-2" carFollowModel="CACC" color="blue" vClass="custom2" tau="0.600" decel="2.060" accel="1.866" emergencyDecel="9.000" actionStepLength="0.100" lcAssertive="0.844">
            <param key="has.toc.device" value="true"/>
            <param key="device.toc.automatedType" value="L4-CV-Left-"/>
            <param key="device.toc.manualType" value="L0-HDV-"/>
            <param key="device.toc.responseTime" value="6.832"/>
            <param key="device.toc.initialAwareness" value="0.010"/>
            <param key="device.toc.recoveryRate" value="0.042"/>
            <param key="device.toc.tauCACCtoACC" value="1.314"/>
            <param key="device.toc.ogNewTimeHeadway" value="1.600"/>
            <param key="device.toc.ogChangeRate" value="0.800"/>
            <param key="device.toc.mrmDecel" value="3.000"/>
            <param key="device.toc.useColorScheme" value="true"/>
            <param key="has.ssm.device" value="true"/>
            <param key="device.ssm.measures" value="TTC DRAC PET"/>
            <param key="device.ssm.thresholds" value="3.0 5.0 2.0"/>
            <param key="device.ssm.range" value="50.000"/>
            <param key="device.ssm.extratime" value="5.000"/>
            <param key="device.ssm.file" value="Output-Files\SSM-L4-CV.xml"/>
            <param key="device.ssm.trajectories" value="false"/>
            <param key="device.ssm.geo" value="false"/>
        </vType>
        <vType id="L4-CV-Left-3" carFollowModel="CACC" color="blue" vClass="custom2" tau="0.600" decel="3.310" accel="1.068" emergencyDecel="9.000" actionStepLength="0.100" lcAssertive="0.869">
            <param key="has.toc.device" value="true"/>
            <param key="device.toc.automatedType" value="L4-CV-Left-"/>
            <param key="device.toc.manualType" value="L0-HDV-"/>
            <param key="device.toc.responseTime" value="6.405"/>
            <param key="device.toc.initialAwareness" value="0.010"/>
            <param key="device.toc.recoveryRate" value="0.381"/>
            <param key="device.toc.tauCACCtoACC" value="1.393"/>
            <param key="device.toc.ogNewTimeHeadway" value="1.600"/>
            <param key="device.toc.ogChangeRate" value="0.800"/>
            <param key="device.toc.mrmDecel" value="3.000"/>
            <param key="device.toc.useColorScheme" value="true"/>
            <param key="has.ssm.device" value="true"/>
            <param key="device.ssm.measures" value="TTC DRAC PET"/>
            <param key="device.ssm.thresholds" value="3.0 5.0 2.0"/>
            <param key="device.ssm.range" value="50.000"/>
            <param key="device.ssm.extratime" value="5.000"/>
            <param key="device.ssm.file" value="Output-Files\SSM-L4-CV.xml"/>
            <param key="device.ssm.trajectories" value="false"/>
            <param key="device.ssm.geo" value="false"/>
        </vType>
        <vType id="L4-CV-Left-4" carFollowModel="CACC" color="blue" vClass="custom2" tau="0.600" decel="3.143" accel="1.279" emergencyDecel="9.000" actionStepLength="0.100" lcAssertive="0.814">
            <param key="has.toc.device" value="true"/>
            <param key="device.toc.automatedType" value="L4-CV-Left-"/>
            <param key="device.toc.manualType" value="L0-HDV-"/>
            <param key="device.toc.responseTime" value="7.278"/>
            <param key="device.toc.initialAwareness" value="0.010"/>
            <param key="device.toc.recoveryRate" value="0.129"/>
            <param key="device.toc.tauCACCtoACC" value="1.635"/>
            <param key="device.toc.ogNewTimeHeadway" value="1.600"/>
            <param key="device.toc.ogChangeRate" value="0.800"/>
            <param key="device.toc.mrmDecel" value="3.000"/>
            <param key="device.toc.useColorScheme" value="true"/>
            <param key="has.ssm.device" value="true"/>
            <param key="device.ssm.measures" value="TTC DRAC PET"/>
            <param key="device.ssm.thresholds" value="3.0 5.0 2.0"/>
            <param key="device.ssm.range" value="50.000"/>
            <param key="device.ssm.extratime" value="5.000"/>
            <param key="device.ssm.file" value="Output-Files\SSM-L4-CV.xml"/>
            <param key="device.ssm.trajectories" value="false"/>
            <param key="device.ssm.geo" value="false"/>
        </vType>
        <vType id="L4-CV-Left-5" carFollowModel="CACC" color="blue" vClass="custom2" tau="0.600" decel="3.875" accel="1.501" emergencyDecel="9.000" actionStepLength="0.100" lcAssertive="0.831">
            <param key="has.toc.device" value="true"/>
            <param key="device.toc.automatedType" value="L4-CV-Left-"/>
            <param key="device.toc.manualType" value="L0-HDV-"/>
            <param key="device.toc.responseTime" value="5.952"/>
            <param key="device.toc.initialAwareness" value="0.010"/>
            <param key="device.toc.recoveryRate" value="0.348"/>
            <param key="device.toc.tauCACCtoACC" value="1.704"/>
            <param key="device.toc.ogNewTimeHeadway" value="1.600"/>
            <param key="device.toc.ogChangeRate" value="0.800"/>
            <param key="device.toc.mrmDecel" value="3.000"/>
            <param key="device.toc.useColorScheme" value="true"/>
            <param key="has.ssm.device" value="true"/>
            <param key="device.ssm.measures" value="TTC DRAC PET"/>
            <param key="device.ssm.thresholds" value="3.0 5.0 2.0"/>
            <param key="device.ssm.range" value="50.000"/>
            <param key="device.ssm.extratime" value="5.000"/>
            <param key="device.ssm.file" value="Output-Files\SSM-L4-CV.xml"/>
            <param key="device.ssm.trajectories" value="false"/>
            <param key="device.ssm.geo" value="false"/>
        </vType>
        <vType id="L4-CV-Left-6" carFollowModel="CACC" color="blue" vClass="custom2" tau="0.600" decel="2.649" accel="1.406" emergencyDecel="9.000" actionStepLength="0.100" lcAssertive="0.847">
            <param key="has.toc.device" value="true"/>
            <param key="device.toc.automatedType" value="L4-CV-Left-"/>
            <param key="device.toc.manualType" value="L0-HDV-"/>
            <param key="device.toc.responseTime" value="6.012"/>
            <param key="device.toc.initialAwareness" value="0.010"/>
            <param key="device.toc.recoveryRate" value="0.176"/>
            <param key="device.toc.tauCACCtoACC" value="1.456"/>
            <param key="device.toc.ogNewTimeHeadway" value="1.600"/>
            <param key="device.toc.ogChangeRate" value="0.800"/>
            <param key="device.toc.mrmDecel" value="3.000"/>
            <param key="device.toc.useColorScheme" value="true"/>
            <param key="has.ssm.device" value="true"/>
            <param key="device.ssm.measures" value="TTC DRAC PET"/>
            <param key="device.ssm.thresholds" value="3.0 5.0 2.0"/>
            <param key="device.ssm.range" value="50.000"/>
            <param key="device.ssm.extratime" value="5.000"/>
            <param key="device.ssm.file" value="Output-Files\SSM-L4-CV.xml"/>
            <param key="device.ssm.trajectories" value="false"/>
            <param key="device.ssm.geo" value="false"/>
        </vType>
        <vType id="L4-CV-Left-7" carFollowModel="CACC" color="blue" vClass="custom2" tau="0.600" decel="2.161" accel="0.825" emergencyDecel="9.000" actionStepLength="0.100" lcAssertive="0.838">
            <param key="has.toc.device" value="true"/>
            <param key="device.toc.automatedType" value="L4-CV-Left-"/>
            <param key="device.toc.manualType" value="L0-HDV-"/>
            <param key="device.toc.responseTime" value="1.410"/>
            <param key="device.toc.initialAwareness" value="0.010"/>
            <param key="device.toc.recoveryRate" value="0.114"/>
            <param key="device.toc.tauCACCtoACC" value="1.387"/>
            <param key="device.toc.ogNewTimeHeadway" value="1.600"/>
            <param key="device.toc.ogChangeRate" value="0.800"/>
            <param key="device.toc.mrmDecel" value="3.000"/>
            <param key="device.toc.useColorScheme" value="true"/>
            <param key="has.ssm.device" value="true"/>
            <param key="device.ssm.measures" value="TTC DRAC PET"/>
            <param key="device.ssm.thresholds" value="3.0 5.0 2.0"/>
            <param key="device.ssm.range" value="50.000"/>
            <param key="device.ssm.extratime" value="5.000"/>
            <param key="device.ssm.file" value="Output-Files\SSM-L4-CV.xml"/>
            <param key="device.ssm.trajectories" value="false"/>
            <param key="device.ssm.geo" value="false"/>
        </vType>
        <vType id="L4-CV-Left-8" carFollowModel="CACC" color="blue" vClass="custom2" tau="0.600" decel="2.782" accel="1.254" emergencyDecel="9.000" actionStepLength="0.100" lcAssertive="0.874">
            <param key="has.toc.device" value="true"/>
            <param key="device.toc.automatedType" value="L4-CV-Left-"/>
            <param key="device.toc.manualType" value="L0-HDV-"/>
            <param key="device.toc.responseTime" value="4.982"/>
            <param key="device.toc.initialAwareness" value="0.010"/>
            <param key="device.toc.recoveryRate" value="0.333"/>
            <param key="device.toc.tauCACCtoACC" value="1.307"/>
            <param key="device.toc.ogNewTimeHeadway" value="1.600"/>
            <param key="device.toc.ogChangeRate" value="0.800"/>
            <param key="device.toc.mrmDecel" value="3.000"/>
            <param key="device.toc.useColorScheme" value="true"/>
            <param key="has.ssm.device" value="true"/>
            <param key="device.ssm.measures" value="TTC DRAC PET"/>
            <param key="device.ssm.thresholds" value="3.0 5.0 2.0"/>
            <param key="device.ssm.range" value="50.000"/>
            <param key="device.ssm.extratime" value="5.000"/>
            <param key="device.ssm.file" value="Output-Files\SSM-L4-CV.xml"/>
            <param key="device.ssm.trajectories" value="false"/>
            <param key="device.ssm.geo" value="false"/>
        </vType>
        <vType id="L4-CV-Left-9" carFollowModel="CACC" color="blue" vClass="custom2" tau="0.600" decel="2.814" accel="0.796" emergencyDecel="9.000" actionStepLength="0.100" lcAssertive="0.852">
            <param key="has.toc.device" value="true"/>
            <param key="device.toc.automatedType" value="L4-CV-Left-"/>
            <param key="device.toc.manualType" value="L0-HDV-"/>
            <param key="device.toc.responseTime" value="6.971"/>
            <param key="device.toc.initialAwareness" value="0.010"/>
            <param key="device.toc.recoveryRate" value="0.247"/>
            <param key="device.toc.tauCACCtoACC" value="1.464"/>
            <param key="device.toc.ogNewTimeHeadway" value="1.600"/>
            <param key="device.toc.ogChangeRate" value="0.800"/>
            <param key="device.toc.mrmDecel" value="3.000"/>
            <param key="device.toc.useColorScheme" value="true"/>
            <param key="has.ssm.device" value="true"/>
            <param key="device.ssm.measures" value="TTC DRAC PET"/>
            <param key="device.ssm.thresholds" value="3.0 5.0 2.0"/>
            <param key="device.ssm.range" value="50.000"/>
            <param key="device.ssm.extratime" value="5.000"/>
            <param key="device.ssm.file" value="Output-Files\SSM-L4-CV.xml"/>
            <param key="device.ssm.trajectories" value="false"/>
            <param key="device.ssm.geo" value="false"/>
        </vType>
        <vType id="L4-CV-Left-10" carFollowModel="CACC" color="blue" vClass="custom2" tau="0.600" decel="2.866" accel="1.840" emergencyDecel="9.000" actionStepLength="0.100" lcAssertive="0.833">
            <param key="has.toc.device" value="true"/>
            <param key="device.toc.automatedType" value="L4-CV-Left-"/>
            <param key="device.toc.manualType" value="L0-HDV-"/>
            <param key="device.toc.responseTime" value="6.089"/>
            <param key="device.toc.initialAwareness" value="0.010"/>
            <param key="device.toc.recoveryRate" value="0.067"/>
            <param key="device.toc.tauCACCtoACC" value="1.507"/>
            <param key="device.toc.ogNewTimeHeadway" value="1.600"/>
            <param key="device.toc.ogChangeRate" value="0.800"/>
            <param key="device.toc.mrmDecel" value="3.000"/>
            <param key="device.toc.useColorScheme" value="true"/>
            <param key="has.ssm.device" value="true"/>
            <param key="device.ssm.measures" value="TTC DRAC PET"/>
            <param key="device.ssm.thresholds" value="3.0 5.0 2.0"/>
            <param key="device.ssm.range" value="50.000"/>
            <param key="device.ssm.extratime" value="5.000"/>
            <param key="device.ssm.file" value="Output-Files\SSM-L4-CV.xml"/>
            <param key="device.ssm.trajectories" value="false"/>
            <param key="device.ssm.geo" value="false"/>
        </vType>
        <vType id="L4-CV-Left-11" carFollowModel="CACC" color="blue" vClass="custom2" tau="0.600" decel="2.115" accel="0.984" emergencyDecel="9.000" actionStepLength="0.100" lcAssertive="0.868">
            <param key="has.toc.device" value="true"/>
            <param key="device.toc.automatedType" value="L4-CV-Left-"/>
            <param key="device.toc.manualType" value="L0-HDV-"/>
            <param key="device.toc.responseTime" value="6.373"/>
            <param key="device.toc.initialAwareness" value="0.010"/>
            <param key="device.toc.recoveryRate" value="0.217"/>
            <param key="device.toc.tauCACCtoACC" value="1.620"/>
            <param key="device.toc.ogNewTimeHeadway" value="1.600"/>
            <param key="device.toc.ogChangeRate" value="0.800"/>
            <param key="device.toc.mrmDecel" value="3.000"/>
            <param key="device.toc.useColorScheme" value="true"/>
            <param key="has.ssm.device" value="true"/>
            <param key="device.ssm.measures" value="TTC DRAC PET"/>
            <param key="device.ssm.thresholds" value="3.0 5.0 2.0"/>
            <param key="device.ssm.range" value="50.000"/>
            <param key="device.ssm.extratime" value="5.000"/>
            <param key="device.ssm.file" value="Output-Files\SSM-L4-CV.xml"/>
            <param key="device.ssm.trajectories" value="false"/>
            <param key="device.ssm.geo" value="false"/>
        </vType>
        <vType id="L4-CV-Left-12" carFollowModel="CACC" color="blue" vClass="custom2" tau="0.600" decel="2.258" accel="1.921" emergencyDecel="9.000" actionStepLength="0.100" lcAssertive="0.825">
            <param key="has.toc.device" value="true"/>
            <param key="device.toc.automatedType" value="L4-CV-Left-"/>
            <param key="device.toc.manualType" value="L0-HDV-"/>
            <param key="device.toc.responseTime" value="2.725"/>
            <param key="device.toc.initialAwareness" value="0.010"/>
            <param key="device.toc.recoveryRate" value="0.157"/>
            <param key="device.toc.tauCACCtoACC" value="1.447"/>
            <param key="device.toc.ogNewTimeHeadway" value="1.600"/>
            <param key="device.toc.ogChangeRate" value="0.800"/>
            <param key="device.toc.mrmDecel" value="3.000"/>
            <param key="device.toc.useColorScheme" value="true"/>
            <param key="has.ssm.device" value="true"/>
            <param key="device.ssm.measures" value="TTC DRAC PET"/>
            <param key="device.ssm.thresholds" value="3.0 5.0 2.0"/>
            <param key="device.ssm.range" value="50.000"/>
            <param key="device.ssm.extratime" value="5.000"/>
            <param key="device.ssm.file" value="Output-Files\SSM-L4-CV.xml"/>
            <param key="device.ssm.trajectories" value="false"/>
            <param key="device.ssm.geo" value="false"/>
        </vType>
        <vType id="L4-CV-Left-13" carFollowModel="CACC" color="blue" vClass="custom2" tau="0.600" decel="3.776" accel="1.969" emergencyDecel="9.000" actionStepLength="0.100" lcAssertive="0.856">
            <param key="has.toc.device" value="true"/>
            <param key="device.toc.automatedType" value="L4-CV-Left-"/>
            <param key="device.toc.manualType" value="L0-HDV-"/>
            <param key="device.toc.responseTime" value="5.074"/>
            <param key="device.toc.initialAwareness" value="0.010"/>
            <param key="device.toc.recoveryRate" value="0.232"/>
            <param key="device.toc.tauCACCtoACC" value="1.564"/>
            <param key="device.toc.ogNewTimeHeadway" value="1.600"/>
            <param key="device.toc.ogChangeRate" value="0.800"/>
            <param key="device.toc.mrmDecel" value="3.000"/>
            <param key="device.toc.useColorScheme" value="true"/>
            <param key="has.ssm.device" value="true"/>
            <param key="device.ssm.measures" value="TTC DRAC PET"/>
            <param key="device.ssm.thresholds" value="3.0 5.0 2.0"/>
            <param key="device.ssm.range" value="50.000"/>
            <param key="device.ssm.extratime" value="5.000"/>
            <param key="device.ssm.file" value="Output-Files\SSM-L4-CV.xml"/>
            <param key="device.ssm.trajectories" value="false"/>
            <param key="device.ssm.geo" value="false"/>
        </vType>
        <vType id="L4-CV-Left-14" carFollowModel="CACC" color="blue" vClass="custom2" tau="0.600" decel="3.923" accel="1.375" emergencyDecel="9.000" actionStepLength="0.100" lcAssertive="0.880">
            <param key="has.toc.device" value="true"/>
            <param key="device.toc.automatedType" value="L4-CV-Left-"/>
            <param key="device.toc.manualType" value="L0-HDV-"/>
            <param key="device.toc.responseTime" value="8.319"/>
            <param key="device.toc.initialAwareness" value="0.010"/>
            <param key="device.toc.recoveryRate" value="0.181"/>
            <param key="device.toc.tauCACCtoACC" value="1.673"/>
            <param key="device.toc.ogNewTimeHeadway" value="1.600"/>
            <param key="device.toc.ogChangeRate" value="0.800"/>
            <param key="device.toc.mrmDecel" value="3.000"/>
            <param key="device.toc.useColorScheme" value="true"/>
            <param key="has.ssm.device" value="true"/>
            <param key="device.ssm.measures" value="TTC DRAC PET"/>
            <param key="device.ssm.thresholds" value="3.0 5.0 2.0"/>
            <param key="device.ssm.range" value="50.000"/>
            <param key="device.ssm.extratime" value="5.000"/>
            <param key="device.ssm.file" value="Output-Files\SSM-L4-CV.xml"/>
            <param key="device.ssm.trajectories" value="false"/>
            <param key="device.ssm.geo" value="false"/>
        </vType>
        <vType id="L4-CV-Left-15" carFollowModel="CACC" color="blue" vClass="custom2" tau="0.600" decel="2.521" accel="1.077" emergencyDecel="9.000" actionStepLength="0.100" lcAssertive="0.865">
            <param key="has.toc.device" value="true"/>
            <param key="device.toc.automatedType" value="L4-CV-Left-"/>
            <param key="device.toc.manualType" value="L0-HDV-"/>
            <param key="device.toc.responseTime" value="6.633"/>
            <param key="device.toc.initialAwareness" value="0.010"/>
            <param key="device.toc.recoveryRate" value="0.240"/>
            <param key="device.toc.tauCACCtoACC" value="1.631"/>
            <param key="device.toc.ogNewTimeHeadway" value="1.600"/>
            <param key="device.toc.ogChangeRate" value="0.800"/>
            <param key="device.toc.mrmDecel" value="3.000"/>
            <param key="device.toc.useColorScheme" value="true"/>
            <param key="has.ssm.device" value="true"/>
            <param key="device.ssm.measures" value="TTC DRAC PET"/>
            <param key="device.ssm.thresholds" value="3.0 5.0 2.0"/>
            <param key="device.ssm.range" value="50.000"/>
            <param key="device.ssm.extratime" value="5.000"/>
            <param key="device.ssm.file" value="Output-Files\SSM-L4-CV.xml"/>
            <param key="device.ssm.trajectories" value="false"/>
            <param key="device.ssm.geo" value="false"/>
        </vType>
        <vType id="L4-CV-Left-16" carFollowModel="CACC" color="blue" vClass="custom2" tau="0.600" decel="3.404" accel="1.873" emergencyDecel="9.000" actionStepLength="0.100" lcAssertive="0.841">
            <param key="has.toc.device" value="true"/>
            <param key="device.toc.automatedType" value="L4-CV-Left-"/>
            <param key="device.toc.manualType" value="L0-HDV-"/>
            <param key="device.toc.responseTime" value="2.538"/>
            <param key="device.toc.initialAwareness" value="0.010"/>
            <param key="device.toc.recoveryRate" value="0.274"/>
            <param key="device.toc.tauCACCtoACC" value="1.752"/>
            <param key="device.toc.ogNewTimeHeadway" value="1.600"/>
            <param key="device.toc.ogChangeRate" value="0.800"/>
            <param key="device.toc.mrmDecel" value="3.000"/>
            <param key="device.toc.useColorScheme" value="true"/>
            <param key="has.ssm.device" value="true"/>
            <param key="device.ssm.measures" value="TTC DRAC PET"/>
            <param key="device.ssm.thresholds" value="3.0 5.0 2.0"/>
            <param key="device.ssm.range" value="50.000"/>
            <param key="device.ssm.extratime" value="5.000"/>
            <param key="device.ssm.file" value="Output-Files\SSM-L4-CV.xml"/>
            <param key="device.ssm.trajectories" value="false"/>
            <param key="device.ssm.geo" value="false"/>
        </vType>
        <vType id="L4-CV-Left-17" carFollowModel="CACC" color="blue" vClass="custom2" tau="0.600" decel="2.750" accel="1.921" emergencyDecel="9.000" actionStepLength="0.100" lcAssertive="0.808">
            <param key="has.toc.device" value="true"/>
            <param key="device.toc.automatedType" value="L4-CV-Left-"/>
            <param key="device.toc.manualType" value="L0-HDV-"/>
            <param key="device.toc.responseTime" value="6.605"/>
            <param key="device.toc.initialAwareness" value="0.010"/>
            <param key="device.toc.recoveryRate" value="0.195"/>
            <param key="device.toc.tauCACCtoACC" value="1.452"/>
            <param key="device.toc.ogNewTimeHeadway" value="1.600"/>
            <param key="device.toc.ogChangeRate" value="0.800"/>
            <param key="device.toc.mrmDecel" value="3.000"/>
            <param key="device.toc.useColorScheme" value="true"/>
            <param key="has.ssm.device" value="true"/>
            <param key="device.ssm.measures" value="TTC DRAC PET"/>
            <param key="device.ssm.thresholds" value="3.0 5.0 2.0"/>
            <param key="device.ssm.range" value="50.000"/>
            <param key="device.ssm.extratime" value="5.000"/>
            <param key="device.ssm.file" value="Output-Files\SSM-L4-CV.xml"/>
            <param key="device.ssm.trajectories" value="false"/>
            <param key="device.ssm.geo" value="false"/>
        </vType>
        <vType id="L4-CV-Left-18" carFollowModel="CACC" color="blue" vClass="custom2" tau="0.600" decel="2.245" accel="1.214" emergencyDecel="9.000" actionStepLength="0.100" lcAssertive="0.860">
            <param key="has.toc.device" value="true"/>
            <param key="device.toc.automatedType" value="L4-CV-Left-"/>
            <param key="device.toc.manualType" value="L0-HDV-"/>
            <param key="device.toc.responseTime" value="5.241"/>
            <param key="device.toc.initialAwareness" value="0.010"/>
            <param key="device.toc.recoveryRate" value="0.203"/>
            <param key="device.toc.tauCACCtoACC" value="1.622"/>
            <param key="device.toc.ogNewTimeHeadway" value="1.600"/>
            <param key="device.toc.ogChangeRate" value="0.800"/>
            <param key="device.toc.mrmDecel" value="3.000"/>
            <param key="device.toc.useColorScheme" value="true"/>
            <param key="has.ssm.device" value="true"/>
            <param key="device.ssm.measures" value="TTC DRAC PET"/>
            <param key="device.ssm.thresholds" value="3.0 5.0 2.0"/>
            <param key="device.ssm.range" value="50.000"/>
            <param key="device.ssm.extratime" value="5.000"/>
            <param key="device.ssm.file" value="Output-Files\SSM-L4-CV.xml"/>
            <param key="device.ssm.trajectories" value="false"/>
            <param key="device.ssm.geo" value="false"/>
        </vType>
        <vType id="L4-CV-Left-19" carFollowModel="CACC" color="blue" vClass="custom2" tau="0.600" decel="3.343" accel="1.882" emergencyDecel="9.000" actionStepLength="0.100" lcAssertive="0.833">
            <param key="has.toc.device" value="true"/>
            <param key="device.toc.automatedType" value="L4-CV-Left-"/>