<?xml version="1.0" encoding="UTF-8"?>

<!-- generated on 03/15/21 18:04:42 by Eclipse SUMO GUI Version 1.8.0
<configuration xmlns:xsi="http://www.w3.org/2001/XMLSchema-instance" xsi:noNamespaceSchemaLocation="http://sumo.dlr.de/xsd/sumoConfiguration.xsd">

    <input>
        <net-file value="Roadworks\RealTMSPenetration1\../RoadworksIntersection.net.xml"/>
        <route-files value="Roadworks\RealTMSPenetration1\Route-Files/L4-CV-Route.rou.xml,Roadworks\RealTMSPenetration1\Route-Files/L4-AV-Route.rou.xml,Roadworks\RealTMSPenetration1\Route-Files/L2-CV-Route.rou.xml,Roadworks\RealTMSPenetration1\Route-Files/L2-AV-Route.rou.xml,Roadworks\RealTMSPenetration1\Route-Files/L0-HDV-Route.rou.xml"/>
        <additional-files value="Roadworks\RealTMSPenetration1\../Additional-Files/Roadworks-Detectors.add.xml,Roadworks\RealTMSPenetration1\../Additional-Files/Roadworks-Rerouters.add.xml,Roadworks\RealTMSPenetration1\../Additional-Files/Roadworks-Traffic-lights.add.xml,Roadworks\RealTMSPenetration1\../Additional-Files/Roadworks-Traffic-Signs.add.xml,Roadworks\RealTMSPenetration1\PreparingVehicleModels/Vehicle-Models/L4-CV.add.xml,Roadworks\RealTMSPenetration1\PreparingVehicleModels/Vehicle-Models/L4-CV-Left.add.xml,Roadworks\RealTMSPenetration1\PreparingVehicleModels/Vehicle-Models/L4-CV-Right.add.xml,Roadworks\RealTMSPenetration1\PreparingVehicleModels/Vehicle-Models/L4-AV.add.xml,Roadworks\RealTMSPenetration1\PreparingVehicleModels/Vehicle-Models/L4-AV-Left.add.xml,Roadworks\RealTMSPenetration1\PreparingVehicleModels/Vehicle-Models/L4-AV-Right.add.xml,Roadworks\RealTMSPenetration1\PreparingVehicleModels/Vehicle-Models/L2-CV.add.xml,Roadworks\RealTMSPenetration1\PreparingVehicleModels/Vehicle-Models/L2-CV-Left.add.xml,Roadworks\RealTMSPenetration1\PreparingVehicleModels/Vehicle-Models/L2-CV-Right.add.xml,Roadworks\RealTMSPenetration1\PreparingVehicleModels/Vehicle-Models/L2-AV.add.xml,Roadworks\RealTMSPenetration1\PreparingVehicleModels/Vehicle-Models/L2-AV-Left.add.xml,Roadworks\RealTMSPenetration1\PreparingVehicleModels/Vehicle-Models/L2-AV-Right.add.xml,Roadworks\RealTMSPenetration1\PreparingVehicleModels/Vehicle-Models/L0-HDV.add.xml,Roadworks\RealTMSPenetration1\PreparingVehicleModels/Vehicle-Models/L0-HDV-Left.add.xml,Roadworks\RealTMSPenetration1\PreparingVehicleModels/Vehicle-Models/L0-HDV-Straight.add.xml"/>
    </input>

    <output>
        <tripinfo-output value="Roadworks\RealTMSPenetration1\Output-Files\TripInfo.xml"/>
    </output>

    <time>
        <begin value="0"/>
        <step-length value="0.1"/>
    </time>

    <processing>
        <ignore-route-errors value="true"/>
        <waiting-time-memory value="300"/>
        <default.action-step-length value="0.1"/>
    </processing>

    <emissions>
        <device.emissions.probability value="1"/>
    </emissions>

    <traci_server>
        <remote-port value="49890"/>
    </traci_server>

    <gui_only>
        <tracker-interval value="0.1"/>
    </gui_only>

</configuration>
-->

<tripinfos xmlns:xsi="http://www.w3.org/2001/XMLSchema-instance" xsi:noNamespaceSchemaLocation="http://sumo.dlr.de/xsd/tripinfo_file.xsd">
</tripinfos>
