<?xml version="1.0" encoding="UTF-8"?>

<!-- generated on 04/05/21 19:01:40 by Eclipse SUMO sumo Version 1.8.0
<configuration xmlns:xsi="http://www.w3.org/2001/XMLSchema-instance" xsi:noNamespaceSchemaLocation="http://sumo.dlr.de/xsd/sumoConfiguration.xsd">

    <input>
        <net-file value="Roadworks\RealTMSPenetration1\../RoadworksIntersection.net.xml"/>
        <route-files value="Roadworks\RealTMSPenetration1\Route-Files/L4-CV-Route.rou.xml,Roadworks\RealTMSPenetration1\Route-Files/L4-AV-Route.rou.xml,Roadworks\RealTMSPenetration1\Route-Files/L2-CV-Route.rou.xml,Roadworks\RealTMSPenetration1\Route-Files/L2-AV-Route.rou.xml,Roadworks\RealTMSPenetration1\Route-Files/L0-HDV-Route.rou.xml"/>
        <additional-files value="Roadworks\RealTMSPenetration1\../Additional-Files/Roadworks-Detectors.add.xml,Roadworks\RealTMSPenetration1\../Additional-Files/Roadworks-Rerouters.add.xml,Roadworks\RealTMSPenetration1\../Additional-Files/Roadworks-Traffic-lights.add.xml,Roadworks\RealTMSPenetration1\../Additional-Files/Roadworks-Traffic-Signs.add.xml,Roadworks\RealTMSPenetration1\PreparingVehicleModels/Vehicle-Models/L4-CV.add.xml,Roadworks\RealTMSPenetration1\PreparingVehicleModels/Vehicle-Models/L4-CV-Left.add.xml,Roadworks\RealTMSPenetration1\PreparingVehicleModels/Vehicle-Models/L4-CV-Right.add.xml,Roadworks\RealTMSPenetration1\PreparingVehicleModels/Vehicle-Models/L4-AV.add.xml,Roadworks\RealTMSPenetration1\PreparingVehicleModels/Vehicle-Models/L4-AV-Left.add.xml,Roadworks\RealTMSPenetration1\PreparingVehicleModels/Vehicle-Models/L4-AV-Right.add.xml,Roadworks\RealTMSPenetration1\PreparingVehicleModels/Vehicle-Models/L2-CV.add.xml,Roadworks\RealTMSPenetration1\PreparingVehicleModels/Vehicle-Models/L2-CV-Left.add.xml,Roadworks\RealTMSPenetration1\PreparingVehicleModels/Vehicle-Models/L2-CV-Right.add.xml,Roadworks\RealTMSPenetration1\PreparingVehicleModels/Vehicle-Models/L2-AV.add.xml,Roadworks\RealTMSPenetration1\PreparingVehicleModels/Vehicle-Models/L2-AV-Left.add.xml,Roadworks\RealTMSPenetration1\PreparingVehicleModels/Vehicle-Models/L2-AV-Right.add.xml,Roadworks\RealTMSPenetration1\PreparingVehicleModels/Vehicle-Models/L0-HDV.add.xml,Roadworks\RealTMSPenetration1\PreparingVehicleModels/Vehicle-Models/L0-HDV-Left.add.xml,Roadworks\RealTMSPenetration1\PreparingVehicleModels/Vehicle-Models/L0-HDV-Straight.add.xml"/>
    </input>

    <output>
        <tripinfo-output value="Roadworks\RealTMSPenetration1\Output-Files\TripInfo.xml"/>
    </output>

    <time>
        <begin value="0"/>
        <step-length value="0.1"/>
    </time>

    <processing>
        <ignore-route-errors value="true"/>
        <waiting-time-memory value="300"/>
        <default.action-step-length value="0.1"/>
    </processing>

    <report>
        <no-warnings value="true"/>
    </report>

    <emissions>
        <device.emissions.probability value="1"/>
    </emissions>

    <traci_server>
        <remote-port value="60394"/>
    </traci_server>

    <gui_only>
        <quit-on-end value="true"/>
        <start value="true"/>
        <tracker-interval value="0.1"/>
    </gui_only>

</configuration>
-->

<tripinfos xmlns:xsi="http://www.w3.org/2001/XMLSchema-instance" xsi:noNamespaceSchemaLocation="http://sumo.dlr.de/xsd/tripinfo_file.xsd">
    <tripinfo id="L0-HDV-2" depart="3.60" departLane="top-approaching_0" departPos="5.10" departSpeed="0.00" departDelay="0.08" arrival="69.70" arrivalLane="right-exit_0" arrivalPos="486.40" arrivalSpeed="17.20" duration="66.10" routeLength="992.21" waitingTime="0.00" waitingCount="0" stopTime="0.00" timeLoss="7.91" rerouteNo="0" devices="tripinfo_L0-HDV-2 emissions_L0-HDV-2 ssm_L0-HDV-2" vType="L0-HDV-32" speedFactor="1.04" vaporized="">
        <emissions CO_abs="2845.142709" CO2_abs="228545.661059" HC_abs="18.276301" PMx_abs="4.073242" NOx_abs="91.282364" fuel_abs="98.241603" electricity_abs="0"/>
    </tripinfo>
    <tripinfo id="L0-HDV-8" depart="14.10" departLane="top-approaching_0" departPos="5.10" departSpeed="0.00" departDelay="0.02" arrival="80.10" arrivalLane="right-exit_0" arrivalPos="486.40" arrivalSpeed="16.08" duration="66.00" routeLength="992.21" waitingTime="0.00" waitingCount="0" stopTime="0.00" timeLoss="3.36" rerouteNo="0" devices="tripinfo_L0-HDV-8 emissions_L0-HDV-8 ssm_L0-HDV-8" vType="L0-HDV-89" speedFactor="0.96" vaporized="">
        <emissions CO_abs="1422.579693" CO2_abs="151115.183288" HC_abs="8.805174" PMx_abs="2.174751" NOx_abs="56.061596" fuel_abs="64.957975" electricity_abs="0"/>
    </tripinfo>
    <tripinfo id="L0-HDV-7" depart="12.40" departLane="right-approaching_0" departPos="5.10" departSpeed="0.00" departDelay="0.08" arrival="83.70" arrivalLane="top-exit_0" arrivalPos="486.40" arrivalSpeed="19.42" duration="71.30" routeLength="979.43" waitingTime="10.50" waitingCount="1" stopTime="0.00" timeLoss="19.96" rerouteNo="0" devices="tripinfo_L0-HDV-7 emissions_L0-HDV-7 ssm_L0-HDV-7" vType="L0-HDV-1" speedFactor="1.17" vaporized="">
        <emissions CO_abs="4274.194434" CO2_abs="226463.252311" HC_abs="24.274615" PMx_abs="4.330201" NOx_abs="91.563633" fuel_abs="97.347255" electricity_abs="0"/>
    </tripinfo>
    <tripinfo id="L0-HDV-5" depart="9.00" departLane="right-approaching_0" departPos="5.10" departSpeed="0.00" departDelay="0.20" arrival="88.10" arrivalLane="bottom-exit_1" arrivalPos="489.60" arrivalSpeed="19.31" duration="79.10" routeLength="992.90" waitingTime="11.00" waitingCount="1" stopTime="0.00" timeLoss="26.90" rerouteNo="0" devices="tripinfo_L0-HDV-5 emissions_L0-HDV-5 ssm_L0-HDV-5" vType="L0-HDV-32" speedFactor="1.16" vaporized="">
        <emissions CO_abs="5622.553594" CO2_abs="289369.174922" HC_abs="32.432497" PMx_abs="5.639632" NOx_abs="119.115313" fuel_abs="124.387884" electricity_abs="0"/>
    </tripinfo>
    <tripinfo id="L0-HDV-3" depart="5.30" departLane="right-approaching_0" departPos="5.10" departSpeed="0.00" departDelay="0.02" arrival="88.20" arrivalLane="left-exit_1" arrivalPos="431.00" arrivalSpeed="22.59" duration="82.90" routeLength="999.16" waitingTime="14.50" waitingCount="1" stopTime="0.00" timeLoss="37.21" rerouteNo="0" devices="tripinfo_L0-HDV-3 emissions_L0-HDV-3 ssm_L0-HDV-3" vType="L0-HDV-30" speedFactor="1.36" vaporized="">
        <emissions CO_abs="6874.227765" CO2_abs="333177.104678" HC_abs="39.270240" PMx_abs="6.546352" NOx_abs="136.545175" fuel_abs="143.219486" electricity_abs="0"/>
    </tripinfo>
    <tripinfo id="L0-HDV-16" depart="28.20" departLane="right-approaching_0" departPos="5.10" departSpeed="0.00" departDelay="0.04" arrival="89.50" arrivalLane="top-exit_0" arrivalPos="486.40" arrivalSpeed="18.73" duration="61.30" routeLength="979.43" waitingTime="0.00" waitingCount="0" stopTime="0.00" timeLoss="8.23" rerouteNo="0" devices="tripinfo_L0-HDV-16 emissions_L0-HDV-16 ssm_L0-HDV-16" vType="L0-HDV-22" speedFactor="1.13" vaporized="">
        <emissions CO_abs="3329.158363" CO2_abs="252761.710420" HC_abs="21.139795" PMx_abs="4.843547" NOx_abs="103.176756" fuel_abs="108.650647" electricity_abs="0"/>
    </tripinfo>
    <tripinfo id="L2-CV-3" depart="21.00" departLane="left-long-approaching_0" departPos="5.10" departSpeed="0.00" departDelay="0.00" arrival="96.30" arrivalLane="top-exit_0" arrivalPos="486.40" arrivalSpeed="19.65" duration="75.30" routeLength="993.12" waitingTime="2.30" waitingCount="1" stopTime="0.00" timeLoss="22.55" rerouteNo="1" devices="tripinfo_L2-CV-3 emissions_L2-CV-3 ssm_L2-CV-3 toc_L2-CV-3 driverstateL2-CV-3" vType="L2-CV-Left-21@L2-CV-3" speedFactor="1.18" vaporized="">
        <emissions CO_abs="3963.379199" CO2_abs="288464.012510" HC_abs="23.430831" PMx_abs="4.629627" NOx_abs="109.267877" fuel_abs="123.998971" electricity_abs="0"/>
    </tripinfo>
    <tripinfo id="L0-HDV-19" depart="33.50" departLane="right-approaching_0" departPos="5.10" departSpeed="0.00" departDelay="0.06" arrival="101.60" arrivalLane="top-exit_0" arrivalPos="486.40" arrivalSpeed="18.66" duration="68.10" routeLength="979.43" waitingTime="0.00" waitingCount="0" stopTime="0.00" timeLoss="14.74" rerouteNo="0" devices="tripinfo_L0-HDV-19 emissions_L0-HDV-19 ssm_L0-HDV-19" vType="L0-HDV-38" speedFactor="1.12" vaporized="">
        <emissions CO_abs="2694.524669" CO2_abs="219034.095981" HC_abs="17.250472" PMx_abs="3.557507" NOx_abs="84.522059" fuel_abs="94.153570" electricity_abs="0"/>
    </tripinfo>
    <tripinfo id="L0-HDV-17" depart="30.90" departLane="right-approaching_0" departPos="5.10" departSpeed="0.00" departDelay="0.98" arrival="106.70" arrivalLane="bottom-exit_1" arrivalPos="489.60" arrivalSpeed="15.49" duration="75.80" routeLength="992.90" waitingTime="2.40" waitingCount="1" stopTime="0.00" timeLoss="10.81" rerouteNo="0" devices="tripinfo_L0-HDV-17 emissions_L0-HDV-17 ssm_L0-HDV-17" vType="L0-HDV-59" speedFactor="0.93" vaporized="">
        <emissions CO_abs="3172.380944" CO2_abs="219024.782976" HC_abs="19.479303" PMx_abs="3.831343" NOx_abs="87.726833" fuel_abs="94.149414" electricity_abs="0"/>
    </tripinfo>
    <tripinfo id="L0-HDV-15" depart="30.00" departLane="left-long-approaching_0" departPos="5.10" departSpeed="0.00" departDelay="3.60" arrival="106.90" arrivalLane="bottom-exit_0" arrivalPos="489.60" arrivalSpeed="14.97" duration="76.90" routeLength="983.54" waitingTime="0.00" waitingCount="0" stopTime="0.00" timeLoss="8.42" rerouteNo="0" devices="tripinfo_L0-HDV-15 emissions_L0-HDV-15 ssm_L0-HDV-15" vType="L0-HDV-68" speedFactor="0.90" vaporized="">
        <emissions CO_abs="1933.491768" CO2_abs="162552.979042" HC_abs="11.707175" PMx_abs="2.225713" NOx_abs="60.601457" fuel_abs="69.875092" electricity_abs="0"/>
    </tripinfo>
    <tripinfo id="L4-CV-2" depart="40.00" departLane="right-approaching_0" departPos="5.10" departSpeed="0.00" departDelay="0.00" arrival="109.40" arrivalLane="left-exit_0" arrivalPos="431.00" arrivalSpeed="16.26" duration="69.40" routeLength="999.16" waitingTime="0.00" waitingCount="0" stopTime="0.00" timeLoss="5.83" rerouteNo="0" devices="tripinfo_L4-CV-2 emissions_L4-CV-2 ssm_L4-CV-2 toc_L4-CV-2 driverstateL4-CV-2" vType="L4-CV-89@L4-CV-2" speedFactor="0.98" vaporized="">
        <emissions CO_abs="1516.471053" CO2_abs="221849.901268" HC_abs="9.665227" PMx_abs="2.530836" NOx_abs="76.750943" fuel_abs="95.364362" electricity_abs="0"/>
    </tripinfo>
    <tripinfo id="L2-AV-3" depart="24.80" departLane="left-long-approaching_0" departPos="5.10" departSpeed="0.00" departDelay="3.80" arrival="110.40" arrivalLane="top-exit_0" arrivalPos="486.40" arrivalSpeed="17.60" duration="85.60" routeLength="993.12" waitingTime="7.10" waitingCount="1" stopTime="0.00" timeLoss="26.74" rerouteNo="1" devices="tripinfo_L2-AV-3 emissions_L2-AV-3 ssm_L2-AV-3 toc_L2-AV-3 driverstateL2-AV-3" vType="L2-AV-Left-19@L2-AV-3" speedFactor="1.06" vaporized="">
        <emissions CO_abs="4283.843525" CO2_abs="273624.085491" HC_abs="23.886516" PMx_abs="4.185181" NOx_abs="103.126381" fuel_abs="117.620444" electricity_abs="0"/>
    </tripinfo>
    <tripinfo id="L2-CV-6" depart="43.00" departLane="right-approaching_0" departPos="5.10" departSpeed="0.00" departDelay="1.00" arrival="116.80" arrivalLane="left-exit_0" arrivalPos="431.00" arrivalSpeed="17.00" duration="73.80" routeLength="999.16" waitingTime="0.00" waitingCount="0" stopTime="0.00" timeLoss="12.97" rerouteNo="0" devices="tripinfo_L2-CV-6 emissions_L2-CV-6 ssm_L2-CV-6 toc_L2-CV-6 driverstateL2-CV-6" vType="L2-CV-30@L2-CV-6" speedFactor="1.02" vaporized="">
        <emissions CO_abs="2761.093007" CO2_abs="243683.810627" HC_abs="16.816656" PMx_abs="3.596097" NOx_abs="91.203954" fuel_abs="104.749612" electricity_abs="0"/>
    </tripinfo>
    <tripinfo id="L0-HDV-12" depart="26.90" departLane="left-long-approaching_0" departPos="5.10" departSpeed="0.00" departDelay="5.78" arrival="122.10" arrivalLane="top-exit_0" arrivalPos="486.40" arrivalSpeed="16.59" duration="95.20" routeLength="993.12" waitingTime="9.40" waitingCount="3" stopTime="0.00" timeLoss="32.90" rerouteNo="1" devices="tripinfo_L0-HDV-12 emissions_L0-HDV-12 ssm_L0-HDV-12" vType="L0-HDV-Left-85@L0-HDV-12" speedFactor="1.00" vaporized="">
        <emissions CO_abs="5229.734463" CO2_abs="245800.742938" HC_abs="29.101924" PMx_abs="4.227220" NOx_abs="97.886179" fuel_abs="105.660751" electricity_abs="0"/>
    </tripinfo>
    <tripinfo id="L2-CV-4" depart="33.50" departLane="left-long-approaching_0" departPos="5.10" departSpeed="0.00" departDelay="5.50" arrival="123.50" arrivalLane="top-exit_1" arrivalPos="486.40" arrivalSpeed="16.76" duration="90.00" routeLength="993.12" waitingTime="1.30" waitingCount="1" stopTime="0.00" timeLoss="28.22" rerouteNo="1" devices="tripinfo_L2-CV-4 emissions_L2-CV-4 ssm_L2-CV-4 toc_L2-CV-4 driverstateL2-CV-4" vType="L2-CV-Left-38@L2-CV-4" speedFactor="1.01" vaporized="">
        <emissions CO_abs="3377.493188" CO2_abs="255522.928279" HC_abs="19.259129" PMx_abs="3.611487" NOx_abs="94.165013" fuel_abs="109.839359" electricity_abs="0"/>
    </tripinfo>
    <tripinfo id="L0-HDV-32" depart="58.00" departLane="right-approaching_0" departPos="5.10" departSpeed="0.00" departDelay="1.68" arrival="125.00" arrivalLane="bottom-exit_0" arrivalPos="489.60" arrivalSpeed="16.37" duration="67.00" routeLength="992.90" waitingTime="0.00" waitingCount="0" stopTime="0.00" timeLoss="5.85" rerouteNo="0" devices="tripinfo_L0-HDV-32 emissions_L0-HDV-32 ssm_L0-HDV-32" vType="L0-HDV-3" speedFactor="0.99" vaporized="">
        <emissions CO_abs="3103.045310" CO2_abs="242009.030161" HC_abs="19.796258" PMx_abs="4.474172" NOx_abs="98.410023" fuel_abs="104.028666" electricity_abs="0"/>
    </tripinfo>
    <tripinfo id="L2-CV-5" depart="38.40" departLane="left-long-approaching_0" departPos="5.10" departSpeed="0.00" departDelay="3.40" arrival="125.30" arrivalLane="top-exit_0" arrivalPos="486.40" arrivalSpeed="16.58" duration="86.90" routeLength="993.12" waitingTime="0.50" waitingCount="5" stopTime="0.00" timeLoss="24.45" rerouteNo="1" devices="tripinfo_L2-CV-5 emissions_L2-CV-5 ssm_L2-CV-5 toc_L2-CV-5 driverstateL2-CV-5" vType="L2-CV-Left-41@L2-CV-5" speedFactor="0.99" vaporized="">
        <emissions CO_abs="3980.650124" CO2_abs="257840.776695" HC_abs="22.281712" PMx_abs="3.765292" NOx_abs="96.624038" fuel_abs="110.835979" electricity_abs="0"/>
    </tripinfo>
    <tripinfo id="L2-AV-4" depart="35.30" departLane="left-long-approaching_0" departPos="5.10" departSpeed="0.00" departDelay="7.30" arrival="128.70" arrivalLane="top-exit_0" arrivalPos="486.40" arrivalSpeed="16.42" duration="93.40" routeLength="993.12" waitingTime="0.20" waitingCount="1" stopTime="0.00" timeLoss="30.37" rerouteNo="1" devices="tripinfo_L2-AV-4 emissions_L2-AV-4 ssm_L2-AV-4 toc_L2-AV-4 driverstateL2-AV-4" vType="L2-AV-Left-85@L2-AV-4" speedFactor="0.98" vaporized="">
        <emissions CO_abs="4398.587452" CO2_abs="267575.035229" HC_abs="24.883064" PMx_abs="4.110777" NOx_abs="102.562778" fuel_abs="115.020286" electricity_abs="0"/>
    </tripinfo>
    <tripinfo id="L0-HDV-22" depart="38.80" departLane="top-approaching_0" departPos="5.10" departSpeed="0.00" departDelay="0.08" arrival="150.50" arrivalLane="bottom-exit_1" arrivalPos="489.60" arrivalSpeed="20.42" duration="111.70" routeLength="995.17" waitingTime="41.70" waitingCount="1" stopTime="0.00" timeLoss="62.87" rerouteNo="0" devices="tripinfo_L0-HDV-22 emissions_L0-HDV-22 ssm_L0-HDV-22" vType="L0-HDV-8" speedFactor="1.23" vaporized="">
        <emissions CO_abs="10484.805267" CO2_abs="354247.471377" HC_abs="55.836579" PMx_abs="7.070221" NOx_abs="146.885034" fuel_abs="152.279184" electricity_abs="0"/>
    </tripinfo>
    <tripinfo id="L2-CV-2" depart="14.00" departLane="bottom-approaching_0" departPos="5.10" departSpeed="0.00" departDelay="0.00" arrival="150.70" arrivalLane="right-exit_0" arrivalPos="486.40" arrivalSpeed="20.01" duration="136.70" routeLength="979.93" waitingTime="64.80" waitingCount="1" stopTime="0.00" timeLoss="86.97" rerouteNo="0" devices="tripinfo_L2-CV-2 emissions_L2-CV-2 ssm_L2-CV-2 toc_L2-CV-2 driverstateL2-CV-2" vType="L2-CV-0@L2-CV-2" speedFactor="1.20" vaporized="">
        <emissions CO_abs="14323.657942" CO2_abs="451395.738488" HC_abs="74.650395" PMx_abs="8.830125" NOx_abs="184.656024" fuel_abs="194.041066" electricity_abs="0"/>
    </tripinfo>
    <tripinfo id="L2-CV-8" depart="56.90" departLane="bottom-approaching_0" departPos="5.10" departSpeed="0.00" departDelay="0.90" arrival="153.90" arrivalLane="right-exit_1" arrivalPos="486.40" arrivalSpeed="19.66" duration="97.00" routeLength="979.93" waitingTime="5.70" waitingCount="1" stopTime="0.00" timeLoss="46.39" rerouteNo="0" devices="tripinfo_L2-CV-8 emissions_L2-CV-8 ssm_L2-CV-8 toc_L2-CV-8 driverstateL2-CV-8" vType="L2-CV-42@L2-CV-8" speedFactor="1.18" vaporized="">
        <emissions CO_abs="3582.751331" CO2_abs="278413.431569" HC_abs="21.587050" PMx_abs="4.514413" NOx_abs="105.217903" fuel_abs="119.678423" electricity_abs="0"/>
    </tripinfo>
    <tripinfo id="L2-AV-2" depart="17.90" departLane="bottom-approaching_0" departPos="5.10" departSpeed="0.00" departDelay="3.90" arrival="155.60" arrivalLane="right-exit_0" arrivalPos="486.40" arrivalSpeed="16.59" duration="137.70" routeLength="979.93" waitingTime="6.70" waitingCount="1" stopTime="0.00" timeLoss="77.75" rerouteNo="0" devices="tripinfo_L2-AV-2 emissions_L2-AV-2 ssm_L2-AV-2 toc_L2-AV-2 driverstateL2-AV-2" vType="L2-AV-56@L2-AV-2" speedFactor="1.00" vaporized="">
        <emissions CO_abs="3047.187643" CO2_abs="242839.458404" HC_abs="17.187739" PMx_abs="3.341724" NOx_abs="88.996662" fuel_abs="104.387149" electricity_abs="0"/>
    </tripinfo>
    <tripinfo id="L4-AV-3" depart="66.80" departLane="top-approaching_0" departPos="5.10" departSpeed="0.00" departDelay="6.80" arrival="156.90" arrivalLane="bottom-exit_0" arrivalPos="489.60" arrivalSpeed="16.97" duration="90.10" routeLength="995.17" waitingTime="0.10" waitingCount="1" stopTime="0.00" timeLoss="31.33" rerouteNo="0" devices="tripinfo_L4-AV-3 emissions_L4-AV-3 ssm_L4-AV-3 toc_L4-AV-3 driverstateL4-AV-3" vType="L4-AV-59@L4-AV-3" speedFactor="1.02" vaporized="">
        <emissions CO_abs="3017.503750" CO2_abs="252310.138781" HC_abs="17.566959" PMx_abs="3.424013" NOx_abs="92.167650" fuel_abs="108.458244" electricity_abs="0"/>
    </tripinfo>
    <tripinfo id="L4-AV-1" depart="21.30" departLane="bottom-approaching_0" departPos="5.10" departSpeed="0.00" departDelay="1.30" arrival="157.10" arrivalLane="top-exit_0" arrivalPos="486.40" arrivalSpeed="13.99" duration="135.80" routeLength="995.17" waitingTime="52.90" waitingCount="1" stopTime="0.00" timeLoss="64.58" rerouteNo="0" devices="tripinfo_L4-AV-1 emissions_L4-AV-1 ssm_L4-AV-1 toc_L4-AV-1 driverstateL4-AV-1" vType="L4-AV-74@L4-AV-1" speedFactor="0.84" vaporized="">
        <emissions CO_abs="10852.383922" CO2_abs="370252.261741" HC_abs="56.173634" PMx_abs="6.009377" NOx_abs="144.941297" fuel_abs="159.160821" electricity_abs="0"/>
    </tripinfo>
    <tripinfo id="L0-HDV-42" depart="84.30" departLane="top-approaching_0" departPos="5.10" departSpeed="0.00" departDelay="10.38" arrival="157.80" arrivalLane="bottom-exit_1" arrivalPos="489.60" arrivalSpeed="20.57" duration="73.50" routeLength="995.17" waitingTime="0.10" waitingCount="1" stopTime="0.00" timeLoss="25.01" rerouteNo="0" devices="tripinfo_L0-HDV-42 emissions_L0-HDV-42 ssm_L0-HDV-42" vType="L0-HDV-10" speedFactor="1.23" vaporized="">
        <emissions CO_abs="3468.210936" CO2_abs="249016.195047" HC_abs="21.571074" PMx_abs="4.255692" NOx_abs="98.161774" fuel_abs="107.041585" electricity_abs="0"/>
    </tripinfo>
    <tripinfo id="L2-AV-8" depart="59.80" departLane="bottom-approaching_0" departPos="5.10" departSpeed="0.00" departDelay="3.80" arrival="158.40" arrivalLane="right-exit_0" arrivalPos="486.40" arrivalSpeed="17.24" duration="98.60" routeLength="979.93" waitingTime="0.00" waitingCount="0" stopTime="0.00" timeLoss="40.92" rerouteNo="0" devices="tripinfo_L2-AV-8 emissions_L2-AV-8 ssm_L2-AV-8 toc_L2-AV-8 driverstateL2-AV-8" vType="L2-AV-74@L2-AV-8" speedFactor="1.03" vaporized="">
        <emissions CO_abs="3193.994005" CO2_abs="249948.010854" HC_abs="17.920923" PMx_abs="3.619830" NOx_abs="92.338692" fuel_abs="107.442643" electricity_abs="0"/>
    </tripinfo>
    <tripinfo id="L0-HDV-45" depart="79.20" departLane="bottom-approaching_0" departPos="5.10" departSpeed="0.00" departDelay="0.00" arrival="158.70" arrivalLane="top-exit_1" arrivalPos="486.40" arrivalSpeed="14.51" duration="79.50" routeLength="995.17" waitingTime="0.00" waitingCount="0" stopTime="0.00" timeLoss="10.89" rerouteNo="0" devices="tripinfo_L0-HDV-45 emissions_L0-HDV-45 ssm_L0-HDV-45" vType="L0-HDV-92" speedFactor="0.87" vaporized="">
        <emissions CO_abs="2229.927009" CO2_abs="184648.581393" HC_abs="14.315190" PMx_abs="2.791161" NOx_abs="71.136058" fuel_abs="79.372838" electricity_abs="0"/>
    </tripinfo>
    <tripinfo id="L0-HDV-28" depart="49.30" departLane="top-approaching_0" departPos="5.10" departSpeed="0.00" departDelay="0.02" arrival="159.40" arrivalLane="left-exit_0" arrivalPos="431.00" arrivalSpeed="14.61" duration="110.10" routeLength="986.28" waitingTime="23.20" waitingCount="1" stopTime="0.00" timeLoss="39.66" rerouteNo="0" devices="tripinfo_L0-HDV-28 emissions_L0-HDV-28 ssm_L0-HDV-28" vType="L0-HDV-0" speedFactor="0.88" vaporized="">
        <emissions CO_abs="6939.180719" CO2_abs="262503.293120" HC_abs="37.342704" PMx_abs="4.434968" NOx_abs="104.786285" fuel_abs="112.841798" electricity_abs="0"/>
    </tripinfo>
    <tripinfo id="L0-HDV-34" depart="60.70" departLane="top-approaching_0" departPos="5.10" departSpeed="0.00" departDelay="0.86" arrival="160.10" arrivalLane="left-exit_1" arrivalPos="431.00" arrivalSpeed="17.59" duration="99.40" routeLength="986.28" waitingTime="16.70" waitingCount="1" stopTime="0.00" timeLoss="40.87" rerouteNo="0" devices="tripinfo_L0-HDV-34 emissions_L0-HDV-34 ssm_L0-HDV-34" vType="L0-HDV-78" speedFactor="1.06" vaporized="">
        <emissions CO_abs="6016.279908" CO2_abs="258098.895860" HC_abs="33.300739" PMx_abs="4.626653" NOx_abs="104.574134" fuel_abs="110.947443" electricity_abs="0"/>
    </tripinfo>
    <tripinfo id="L2-CV-12" depart="85.90" departLane="bottom-approaching_0" departPos="5.10" departSpeed="0.00" departDelay="1.90" arrival="160.20" arrivalLane="top-exit_1" arrivalPos="486.40" arrivalSpeed="16.42" duration="74.30" routeLength="995.17" waitingTime="0.00" waitingCount="0" stopTime="0.00" timeLoss="19.39" rerouteNo="0" devices="tripinfo_L2-CV-12 emissions_L2-CV-12 ssm_L2-CV-12 toc_L2-CV-12 driverstateL2-CV-12" vType="L2-CV-14@L2-CV-12" speedFactor="1.09" vaporized="">
        <emissions CO_abs="2210.707808" CO2_abs="220641.338900" HC_abs="14.103967" PMx_abs="3.036494" NOx_abs="81.063078" fuel_abs="94.844748" electricity_abs="0"/>
    </tripinfo>
    <tripinfo id="L0-HDV-33" depart="58.10" departLane="top-approaching_0" departPos="5.10" departSpeed="0.00" departDelay="0.02" arrival="160.90" arrivalLane="left-exit_0" arrivalPos="431.00" arrivalSpeed="14.50" duration="102.80" routeLength="986.28" waitingTime="20.30" waitingCount="1" stopTime="0.00" timeLoss="32.08" rerouteNo="0" devices="tripinfo_L0-HDV-33 emissions_L0-HDV-33 ssm_L0-HDV-33" vType="L0-HDV-75" speedFactor="0.87" vaporized="">
        <emissions CO_abs="6465.619704" CO2_abs="269738.281954" HC_abs="35.639886" PMx_abs="4.825232" NOx_abs="109.545075" fuel_abs="115.950939" electricity_abs="0"/>
    </tripinfo>
    <tripinfo id="L0-HDV-51" depart="93.40" departLane="bottom-approaching_0" departPos="5.10" departSpeed="0.00" departDelay="3.64" arrival="161.10" arrivalLane="right-exit_1" arrivalPos="486.40" arrivalSpeed="18.94" duration="67.70" routeLength="979.93" waitingTime="0.00" waitingCount="0" stopTime="0.00" timeLoss="15.11" rerouteNo="0" devices="tripinfo_L0-HDV-51 emissions_L0-HDV-51 ssm_L0-HDV-51" vType="L0-HDV-52" speedFactor="1.14" vaporized="">
        <emissions CO_abs="2537.788242" CO2_abs="198360.078841" HC_abs="15.648468" PMx_abs="3.304812" NOx_abs="77.058146" fuel_abs="85.266554" electricity_abs="0"/>
    </tripinfo>
    <tripinfo id="L2-AV-12" depart="89.40" departLane="bottom-approaching_0" departPos="5.10" departSpeed="0.00" departDelay="5.40" arrival="161.60" arrivalLane="top-exit_0" arrivalPos="486.40" arrivalSpeed="17.38" duration="72.20" routeLength="995.17" waitingTime="0.00" waitingCount="0" stopTime="0.00" timeLoss="14.82" rerouteNo="0" devices="tripinfo_L2-AV-12 emissions_L2-AV-12 ssm_L2-AV-12 toc_L2-AV-12 driverstateL2-AV-12" vType="L2-AV-1@L2-AV-12" speedFactor="1.04" vaporized="">
        <emissions CO_abs="2145.657021" CO2_abs="184986.164844" HC_abs="13.183300" PMx_abs="2.732444" NOx_abs="69.586321" fuel_abs="79.517959" electricity_abs="0"/>
    </tripinfo>
    <tripinfo id="L0-HDV-46" depart="82.20" departLane="bottom-approaching_0" departPos="5.10" departSpeed="0.00" departDelay="1.24" arrival="161.60" arrivalLane="right-exit_0" arrivalPos="486.40" arrivalSpeed="16.94" duration="79.40" routeLength="979.93" waitingTime="0.00" waitingCount="0" stopTime="0.00" timeLoss="20.72" rerouteNo="0" devices="tripinfo_L0-HDV-46 emissions_L0-HDV-46 ssm_L0-HDV-46" vType="L0-HDV-8" speedFactor="1.02" vaporized="">
        <emissions CO_abs="3198.235174" CO2_abs="205246.986279" HC_abs="18.520934" PMx_abs="3.254853" NOx_abs="79.500539" fuel_abs="88.227557" electricity_abs="0"/>
    </tripinfo>
    <tripinfo id="L0-HDV-48" depart="89.50" departLane="bottom-approaching_0" departPos="5.10" departSpeed="0.00" departDelay="5.02" arrival="163.30" arrivalLane="top-exit_0" arrivalPos="486.40" arrivalSpeed="15.74" duration="73.80" routeLength="995.17" waitingTime="0.00" waitingCount="0" stopTime="0.00" timeLoss="10.70" rerouteNo="0" devices="tripinfo_L0-HDV-48 emissions_L0-HDV-48 ssm_L0-HDV-48" vType="L0-HDV-23" speedFactor="0.95" vaporized="">
        <emissions CO_abs="2438.076374" CO2_abs="200489.275180" HC_abs="15.698052" PMx_abs="3.189147" NOx_abs="77.884228" fuel_abs="86.181920" electricity_abs="0"/>
    </tripinfo>
    <tripinfo id="L0-HDV-47" depart="93.90" departLane="top-approaching_0" departPos="5.10" departSpeed="0.00" departDelay="11.18" arrival="164.80" arrivalLane="bottom-exit_0" arrivalPos="489.60" arrivalSpeed="15.38" duration="70.90" routeLength="995.17" waitingTime="0.00" waitingCount="0" stopTime="0.00" timeLoss="6.09" rerouteNo="0" devices="tripinfo_L0-HDV-47 emissions_L0-HDV-47 ssm_L0-HDV-47" vType="L0-HDV-78" speedFactor="0.92" vaporized="">
        <emissions CO_abs="1807.078161" CO2_abs="174181.728390" HC_abs="12.195963" PMx_abs="2.710336" NOx_abs="67.023874" fuel_abs="74.873258" electricity_abs="0"/>
    </tripinfo>
    <tripinfo id="L4-CV-3" depart="63.40" departLane="top-approaching_0" departPos="5.10" departSpeed="0.00" departDelay="3.40" arrival="166.00" arrivalLane="left-exit_0" arrivalPos="431.00" arrivalSpeed="14.28" duration="102.60" routeLength="986.28" waitingTime="9.70" waitingCount="2" stopTime="0.00" timeLoss="30.56" rerouteNo="0" devices="tripinfo_L4-CV-3 emissions_L4-CV-3 ssm_L4-CV-3 toc_L4-CV-3 driverstateL4-CV-3" vType="L4-CV-51@L4-CV-3" speedFactor="0.86" vaporized="">
        <emissions CO_abs="3900.590785" CO2_abs="264036.633760" HC_abs="22.257317" PMx_abs="3.258459" NOx_abs="95.923091" fuel_abs="113.500091" electricity_abs="0"/>
    </tripinfo>
    <tripinfo id="L0-HDV-55" depart="102.00" departLane="top-approaching_0" departPos="5.10" departSpeed="0.00" departDelay="5.20" arrival="166.10" arrivalLane="bottom-exit_1" arrivalPos="489.60" arrivalSpeed="16.43" duration="64.10" routeLength="995.17" waitingTime="0.00" waitingCount="0" stopTime="0.00" timeLoss="4.25" rerouteNo="0" devices="tripinfo_L0-HDV-55 emissions_L0-HDV-55 ssm_L0-HDV-55" vType="L0-HDV-27" speedFactor="1.00" vaporized="">
        <emissions CO_abs="3023.924745" CO2_abs="236504.050757" HC_abs="19.341900" PMx_abs="4.493579" NOx_abs="96.797881" fuel_abs="101.662152" electricity_abs="0"/>
    </tripinfo>
    <tripinfo id="L2-CV-9" depart="69.50" departLane="top-approaching_0" departPos="5.10" departSpeed="0.00" departDelay="6.50" arrival="166.60" arrivalLane="left-exit_1" arrivalPos="431.00" arrivalSpeed="15.01" duration="97.10" routeLength="986.28" waitingTime="5.80" waitingCount="28" stopTime="0.00" timeLoss="28.47" rerouteNo="0" devices="tripinfo_L2-CV-9 emissions_L2-CV-9 ssm_L2-CV-9 toc_L2-CV-9 driverstateL2-CV-9" vType="L2-CV-57@L2-CV-9" speedFactor="0.90" vaporized="">
        <emissions CO_abs="4230.713000" CO2_abs="266907.992643" HC_abs="23.674675" PMx_abs="3.532078" NOx_abs="98.314529" fuel_abs="114.734257" electricity_abs="0"/>
    </tripinfo>
    <tripinfo id="L0-HDV-52" depart="97.00" departLane="bottom-approaching_0" departPos="5.10" departSpeed="0.00" departDelay="5.48" arrival="167.20" arrivalLane="top-exit_0" arrivalPos="486.40" arrivalSpeed="16.00" duration="70.20" routeLength="995.17" waitingTime="0.00" waitingCount="0" stopTime="0.00" timeLoss="7.94" rerouteNo="0" devices="tripinfo_L0-HDV-52 emissions_L0-HDV-52 ssm_L0-HDV-52" vType="L0-HDV-86" speedFactor="0.96" vaporized="">
        <emissions CO_abs="1717.482850" CO2_abs="163934.847287" HC_abs="11.341090" PMx_abs="2.341300" NOx_abs="61.043014" fuel_abs="70.468934" electricity_abs="0"/>
    </tripinfo>
    <tripinfo id="L2-AV-9" depart="72.80" departLane="top-approaching_0" departPos="5.10" departSpeed="0.00" departDelay="9.80" arrival="168.50" arrivalLane="left-exit_1" arrivalPos="431.00" arrivalSpeed="16.95" duration="95.70" routeLength="986.28" waitingTime="0.00" waitingCount="0" stopTime="0.00" timeLoss="34.88" rerouteNo="0" devices="tripinfo_L2-AV-9 emissions_L2-AV-9 ssm_L2-AV-9 toc_L2-AV-9 driverstateL2-AV-9" vType="L2-AV-0@L2-AV-9" speedFactor="1.02" vaporized="">
        <emissions CO_abs="4363.843986" CO2_abs="250622.850158" HC_abs="25.012573" PMx_abs="4.208175" NOx_abs="99.256472" fuel_abs="107.732863" electricity_abs="0"/>
    </tripinfo>