<?xml version="1.0" encoding="UTF-8"?>

<!-- generated on 03/31/21 18:03:37 by Eclipse SUMO sumo Version 1.8.0
<configuration xmlns:xsi="http://www.w3.org/2001/XMLSchema-instance" xsi:noNamespaceSchemaLocation="http://sumo.dlr.de/xsd/sumoConfiguration.xsd">

    <input>
        <net-file value="Roadworks\RealTMSPenetration1\../RoadworksIntersection.net.xml"/>
        <route-files value="Roadworks\RealTMSPenetration1\Route-Files/L4-CV-Route.rou.xml,Roadworks\RealTMSPenetration1\Route-Files/L4-AV-Route.rou.xml,Roadworks\RealTMSPenetration1\Route-Files/L2-CV-Route.rou.xml,Roadworks\RealTMSPenetration1\Route-Files/L2-AV-Route.rou.xml,Roadworks\RealTMSPenetration1\Route-Files/L0-HDV-Route.rou.xml"/>
        <additional-files value="Roadworks\RealTMSPenetration1\../Additional-Files/Roadworks-Detectors.add.xml,Roadworks\RealTMSPenetration1\../Additional-Files/Roadworks-Rerouters.add.xml,Roadworks\RealTMSPenetration1\../Additional-Files/Roadworks-Traffic-lights.add.xml,Roadworks\RealTMSPenetration1\../Additional-Files/Roadworks-Traffic-Signs.add.xml,Roadworks\RealTMSPenetration1\PreparingVehicleModels/Vehicle-Models/L4-CV.add.xml,Roadworks\RealTMSPenetration1\PreparingVehicleModels/Vehicle-Models/L4-CV-Left.add.xml,Roadworks\RealTMSPenetration1\PreparingVehicleModels/Vehicle-Models/L4-CV-Right.add.xml,Roadworks\RealTMSPenetration1\PreparingVehicleModels/Vehicle-Models/L4-AV.add.xml,Roadworks\RealTMSPenetration1\PreparingVehicleModels/Vehicle-Models/L4-AV-Left.add.xml,Roadworks\RealTMSPenetration1\PreparingVehicleModels/Vehicle-Models/L4-AV-Right.add.xml,Roadworks\RealTMSPenetration1\PreparingVehicleModels/Vehicle-Models/L2-CV.add.xml,Roadworks\RealTMSPenetration1\PreparingVehicleModels/Vehicle-Models/L2-CV-Left.add.xml,Roadworks\RealTMSPenetration1\PreparingVehicleModels/Vehicle-Models/L2-CV-Right.add.xml,Roadworks\RealTMSPenetration1\PreparingVehicleModels/Vehicle-Models/L2-AV.add.xml,Roadworks\RealTMSPenetration1\PreparingVehicleModels/Vehicle-Models/L2-AV-Left.add.xml,Roadworks\RealTMSPenetration1\PreparingVehicleModels/Vehicle-Models/L2-AV-Right.add.xml,Roadworks\RealTMSPenetration1\PreparingVehicleModels/Vehicle-Models/L0-HDV.add.xml,Roadworks\RealTMSPenetration1\PreparingVehicleModels/Vehicle-Models/L0-HDV-Left.add.xml,Roadworks\RealTMSPenetration1\PreparingVehicleModels/Vehicle-Models/L0-HDV-Straight.add.xml"/>
    </input>

    <output>
        <tripinfo-output value="Roadworks\RealTMSPenetration1\Output-Files\TripInfo.xml"/>
    </output>

    <time>
        <begin value="0"/>
        <step-length value="0.1"/>
    </time>

    <processing>
        <ignore-route-errors value="true"/>
        <waiting-time-memory value="300"/>
        <default.action-step-length value="0.1"/>
    </processing>

    <report>
        <no-warnings value="true"/>
    </report>

    <emissions>
        <device.emissions.probability value="1"/>
    </emissions>

    <traci_server>
        <remote-port value="53917"/>
    </traci_server>

    <gui_only>
        <quit-on-end value="true"/>
        <start value="true"/>
        <tracker-interval value="0.1"/>
    </gui_only>

</configuration>
-->

<tripinfos xmlns:xsi="http://www.w3.org/2001/XMLSchema-instance" xsi:noNamespaceSchemaLocation="http://sumo.dlr.de/xsd/tripinfo_file.xsd">
    <tripinfo id="L0-HDV-2" depart="3.20" departLane="bottom-approaching_0" departPos="5.10" departSpeed="0.00" departDelay="0.06" arrival="74.00" arrivalLane="left-exit_0" arrivalPos="431.00" arrivalSpeed="16.59" duration="70.80" routeLength="996.90" waitingTime="0.00" waitingCount="0" stopTime="0.00" timeLoss="8.27" rerouteNo="0" devices="tripinfo_L0-HDV-2 emissions_L0-HDV-2 ssm_L0-HDV-2" vType="L0-HDV-85" speedFactor="1.00" vaporized="">
        <emissions CO_abs="2018.921808" CO2_abs="184314.828721" HC_abs="13.005176" PMx_abs="2.748448" NOx_abs="69.574587" fuel_abs="79.229307" electricity_abs="0"/>
    </tripinfo>
    <tripinfo id="L2-AV-2" depart="12.40" departLane="top-approaching_0" departPos="5.10" departSpeed="0.00" departDelay="0.00" arrival="79.40" arrivalLane="right-exit_0" arrivalPos="486.40" arrivalSpeed="16.95" duration="67.00" routeLength="992.21" waitingTime="0.00" waitingCount="0" stopTime="0.00" timeLoss="7.50" rerouteNo="0" devices="tripinfo_L2-AV-2 emissions_L2-AV-2 ssm_L2-AV-2 toc_L2-AV-2 driverstateL2-AV-2" vType="L2-AV-30@L2-AV-2" speedFactor="1.02" vaporized="">
        <emissions CO_abs="1856.611401" CO2_abs="227292.601162" HC_abs="10.958563" PMx_abs="2.830968" NOx_abs="79.783879" fuel_abs="97.703818" electricity_abs="0"/>
    </tripinfo>
    <tripinfo id="L0-HDV-10" depart="15.70" departLane="left-long-approaching_0" departPos="5.10" departSpeed="0.00" departDelay="0.00" arrival="86.70" arrivalLane="right-exit_0" arrivalPos="486.40" arrivalSpeed="18.65" duration="71.00" routeLength="995.81" waitingTime="6.10" waitingCount="1" stopTime="0.00" timeLoss="16.61" rerouteNo="0" devices="tripinfo_L0-HDV-10 emissions_L0-HDV-10 ssm_L0-HDV-10" vType="L0-HDV-Straight-27" speedFactor="1.13" vaporized="">
        <emissions CO_abs="5238.579926" CO2_abs="306185.586245" HC_abs="31.197227" PMx_abs="6.241468" NOx_abs="128.292325" fuel_abs="131.615498" electricity_abs="0"/>
    </tripinfo>
    <tripinfo id="L0-HDV-11" depart="17.30" departLane="right-approaching_0" departPos="5.10" departSpeed="0.00" departDelay="0.03" arrival="88.70" arrivalLane="top-exit_0" arrivalPos="486.40" arrivalSpeed="20.43" duration="71.40" routeLength="979.43" waitingTime="2.20" waitingCount="1" stopTime="0.00" timeLoss="22.63" rerouteNo="0" devices="tripinfo_L0-HDV-11 emissions_L0-HDV-11 ssm_L0-HDV-11" vType="L0-HDV-8" speedFactor="1.23" vaporized="">
        <emissions CO_abs="3973.651827" CO2_abs="250657.908812" HC_abs="23.771396" PMx_abs="4.466365" NOx_abs="99.348605" fuel_abs="107.747458" electricity_abs="0"/>
    </tripinfo>
    <tripinfo id="L0-HDV-5" depart="7.90" departLane="right-approaching_0" departPos="5.10" departSpeed="0.00" departDelay="0.05" arrival="89.10" arrivalLane="left-exit_1" arrivalPos="431.00" arrivalSpeed="18.56" duration="81.20" routeLength="999.16" waitingTime="13.40" waitingCount="1" stopTime="0.00" timeLoss="26.19" rerouteNo="0" devices="tripinfo_L0-HDV-5 emissions_L0-HDV-5 ssm_L0-HDV-5" vType="L0-HDV-22" speedFactor="1.13" vaporized="">
        <emissions CO_abs="6181.321659" CO2_abs="309779.375731" HC_abs="35.485694" PMx_abs="6.152647" NOx_abs="128.713237" fuel_abs="133.161307" electricity_abs="0"/>
    </tripinfo>
    <tripinfo id="L4-AV-0" depart="0.00" departLane="left-long-approaching_0" departPos="5.10" departSpeed="0.00" departDelay="0.00" arrival="90.00" arrivalLane="bottom-exit_0" arrivalPos="489.60" arrivalSpeed="20.01" duration="90.00" routeLength="983.54" waitingTime="17.40" waitingCount="1" stopTime="0.00" timeLoss="38.76" rerouteNo="0" devices="tripinfo_L4-AV-0 emissions_L4-AV-0 ssm_L4-AV-0 toc_L4-AV-0 driverstateL4-AV-0" vType="L4-AV-Right-0@L4-AV-0" speedFactor="1.20" vaporized="">
        <emissions CO_abs="6529.669053" CO2_abs="327686.694410" HC_abs="36.267597" PMx_abs="5.697822" NOx_abs="127.830341" fuel_abs="140.860262" electricity_abs="0"/>
    </tripinfo>
    <tripinfo id="L0-HDV-1" depart="3.90" departLane="left-long-approaching_0" departPos="5.10" departSpeed="0.00" departDelay="2.33" arrival="96.40" arrivalLane="bottom-exit_0" arrivalPos="489.60" arrivalSpeed="15.89" duration="92.50" routeLength="983.54" waitingTime="12.50" waitingCount="1" stopTime="0.00" timeLoss="28.11" rerouteNo="0" devices="tripinfo_L0-HDV-1 emissions_L0-HDV-1 ssm_L0-HDV-1" vType="L0-HDV-88" speedFactor="0.96" vaporized="">
        <emissions CO_abs="5156.840987" CO2_abs="248511.760669" HC_abs="29.035308" PMx_abs="4.252153" NOx_abs="98.933539" fuel_abs="106.826068" electricity_abs="0"/>
    </tripinfo>
    <tripinfo id="L4-CV-1" depart="19.00" departLane="left-long-approaching_0" departPos="5.10" departSpeed="0.00" departDelay="0.00" arrival="98.40" arrivalLane="right-exit_0" arrivalPos="486.40" arrivalSpeed="13.99" duration="79.40" routeLength="995.81" waitingTime="0.00" waitingCount="0" stopTime="0.00" timeLoss="5.87" rerouteNo="0" devices="tripinfo_L4-CV-1 emissions_L4-CV-1 ssm_L4-CV-1 toc_L4-CV-1 driverstateL4-CV-1" vType="L4-CV-74@L4-CV-1" speedFactor="0.84" vaporized="">
        <emissions CO_abs="1512.735788" CO2_abs="218151.897273" HC_abs="10.409526" PMx_abs="2.089191" NOx_abs="74.509462" fuel_abs="93.775371" electricity_abs="0"/>
    </tripinfo>
    <tripinfo id="L4-AV-1" depart="21.10" departLane="right-approaching_0" departPos="5.10" departSpeed="0.00" departDelay="2.10" arrival="100.80" arrivalLane="bottom-exit_1" arrivalPos="489.60" arrivalSpeed="16.59" duration="79.70" routeLength="992.90" waitingTime="4.70" waitingCount="1" stopTime="0.00" timeLoss="18.86" rerouteNo="0" devices="tripinfo_L4-AV-1 emissions_L4-AV-1 ssm_L4-AV-1 toc_L4-AV-1 driverstateL4-AV-1" vType="L4-AV-56@L4-AV-1" speedFactor="1.00" vaporized="">
        <emissions CO_abs="3391.935182" CO2_abs="258594.287707" HC_abs="18.969804" PMx_abs="3.606139" NOx_abs="94.846477" fuel_abs="111.159606" electricity_abs="0"/>
    </tripinfo>
    <tripinfo id="L0-HDV-15" depart="23.60" departLane="left-long-approaching_0" departPos="5.10" departSpeed="0.00" departDelay="0.05" arrival="101.30" arrivalLane="bottom-exit_0" arrivalPos="489.60" arrivalSpeed="14.88" duration="77.70" routeLength="983.54" waitingTime="0.00" waitingCount="0" stopTime="0.00" timeLoss="8.82" rerouteNo="0" devices="tripinfo_L0-HDV-15 emissions_L0-HDV-15 ssm_L0-HDV-15" vType="L0-HDV-85" speedFactor="0.89" vaporized="">
        <emissions CO_abs="2095.710187" CO2_abs="178602.228012" HC_abs="13.311564" PMx_abs="2.520760" NOx_abs="67.281724" fuel_abs="76.773975" electricity_abs="0"/>
    </tripinfo>
    <tripinfo id="L0-HDV-14" depart="24.40" departLane="right-approaching_0" departPos="5.10" departSpeed="0.00" departDelay="2.42" arrival="101.80" arrivalLane="bottom-exit_1" arrivalPos="489.60" arrivalSpeed="16.56" duration="77.40" routeLength="992.90" waitingTime="4.50" waitingCount="1" stopTime="0.00" timeLoss="16.53" rerouteNo="0" devices="tripinfo_L0-HDV-14 emissions_L0-HDV-14 ssm_L0-HDV-14" vType="L0-HDV-11" speedFactor="0.99" vaporized="">
        <emissions CO_abs="3052.319829" CO2_abs="201693.932981" HC_abs="18.079822" PMx_abs="3.271408" NOx_abs="78.273710" fuel_abs="86.700136" electricity_abs="0"/>
    </tripinfo>
    <tripinfo id="L2-AV-3" depart="21.00" departLane="right-approaching_0" departPos="5.10" departSpeed="0.00" departDelay="2.40" arrival="102.30" arrivalLane="left-exit_0" arrivalPos="431.00" arrivalSpeed="16.95" duration="81.30" routeLength="999.16" waitingTime="0.00" waitingCount="0" stopTime="0.00" timeLoss="20.30" rerouteNo="0" devices="tripinfo_L2-AV-3 emissions_L2-AV-3 ssm_L2-AV-3 toc_L2-AV-3 driverstateL2-AV-3" vType="L2-AV-0@L2-AV-3" speedFactor="1.02" vaporized="">
        <emissions CO_abs="3707.663823" CO2_abs="270434.890543" HC_abs="22.086579" PMx_abs="4.293623" NOx_abs="104.610831" fuel_abs="116.248827" electricity_abs="0"/>
    </tripinfo>
    <tripinfo id="L0-HDV-17" depart="26.70" departLane="right-approaching_0" departPos="5.10" departSpeed="0.00" departDelay="0.01" arrival="103.70" arrivalLane="left-exit_1" arrivalPos="431.00" arrivalSpeed="18.40" duration="77.00" routeLength="999.16" waitingTime="0.00" waitingCount="0" stopTime="0.00" timeLoss="21.01" rerouteNo="0" devices="tripinfo_L0-HDV-17 emissions_L0-HDV-17 ssm_L0-HDV-17" vType="L0-HDV-23" speedFactor="1.11" vaporized="">
        <emissions CO_abs="3548.615979" CO2_abs="248387.606324" HC_abs="21.924502" PMx_abs="4.249307" NOx_abs="98.491173" fuel_abs="106.771396" electricity_abs="0"/>
    </tripinfo>
    <tripinfo id="L0-HDV-28" depart="44.00" departLane="left-long-approaching_0" departPos="5.10" departSpeed="0.00" departDelay="0.04" arrival="104.10" arrivalLane="bottom-exit_0" arrivalPos="489.60" arrivalSpeed="19.70" duration="60.10" routeLength="983.54" waitingTime="0.00" waitingCount="0" stopTime="0.00" timeLoss="8.13" rerouteNo="0" devices="tripinfo_L0-HDV-28 emissions_L0-HDV-28 ssm_L0-HDV-28" vType="L0-HDV-42" speedFactor="1.18" vaporized="">
        <emissions CO_abs="3333.811687" CO2_abs="252018.269070" HC_abs="21.200352" PMx_abs="4.865124" NOx_abs="102.745464" fuel_abs="108.331079" electricity_abs="0"/>
    </tripinfo>
    <tripinfo id="L0-HDV-21" depart="35.50" departLane="right-approaching_0" departPos="5.10" departSpeed="0.00" departDelay="2.53" arrival="106.90" arrivalLane="left-exit_0" arrivalPos="431.00" arrivalSpeed="17.29" duration="71.40" routeLength="999.16" waitingTime="0.00" waitingCount="0" stopTime="0.00" timeLoss="11.65" rerouteNo="0" devices="tripinfo_L0-HDV-21 emissions_L0-HDV-21 ssm_L0-HDV-21" vType="L0-HDV-73" speedFactor="1.04" vaporized="">
        <emissions CO_abs="2577.063950" CO2_abs="202339.112458" HC_abs="16.268255" PMx_abs="3.388052" NOx_abs="79.404012" fuel_abs="86.976933" electricity_abs="0"/>
    </tripinfo>
    <tripinfo id="L2-CV-6" depart="37.20" departLane="right-approaching_0" departPos="5.10" departSpeed="0.00" departDelay="0.00" arrival="113.60" arrivalLane="left-exit_1" arrivalPos="431.00" arrivalSpeed="17.30" duration="76.40" routeLength="999.16" waitingTime="0.00" waitingCount="0" stopTime="0.00" timeLoss="16.62" rerouteNo="0" devices="tripinfo_L2-CV-6 emissions_L2-CV-6 ssm_L2-CV-6 toc_L2-CV-6 driverstateL2-CV-6" vType="L2-CV-28@L2-CV-6" speedFactor="1.04" vaporized="">
        <emissions CO_abs="1927.508589" CO2_abs="203589.761752" HC_abs="12.555436" PMx_abs="2.677370" NOx_abs="74.380855" fuel_abs="87.515036" electricity_abs="0"/>
    </tripinfo>
    <tripinfo id="L0-HDV-25" depart="39.30" departLane="left-long-approaching_0" departPos="5.10" departSpeed="0.00" departDelay="0.05" arrival="113.80" arrivalLane="right-exit_0" arrivalPos="486.40" arrivalSpeed="14.46" duration="74.50" routeLength="995.81" waitingTime="0.00" waitingCount="0" stopTime="0.00" timeLoss="3.94" rerouteNo="0" devices="tripinfo_L0-HDV-25 emissions_L0-HDV-25 ssm_L0-HDV-25" vType="L0-HDV-Straight-75" speedFactor="0.87" vaporized="">
        <emissions CO_abs="2030.979176" CO2_abs="182791.951345" HC_abs="13.430219" PMx_abs="2.897115" NOx_abs="71.163227" fuel_abs="78.574411" electricity_abs="0"/>
    </tripinfo>
    <tripinfo id="L0-HDV-20" depart="31.40" departLane="right-approaching_0" departPos="5.10" departSpeed="0.00" departDelay="0.00" arrival="114.70" arrivalLane="left-exit_0" arrivalPos="431.00" arrivalSpeed="14.61" duration="83.30" routeLength="999.16" waitingTime="0.10" waitingCount="1" stopTime="0.00" timeLoss="12.64" rerouteNo="0" devices="tripinfo_L0-HDV-20 emissions_L0-HDV-20 ssm_L0-HDV-20" vType="L0-HDV-0" speedFactor="0.88" vaporized="">
        <emissions CO_abs="2316.960562" CO2_abs="184741.824120" HC_abs="14.527775" PMx_abs="2.538038" NOx_abs="69.406819" fuel_abs="79.413368" electricity_abs="0"/>
    </tripinfo>
    <tripinfo id="L2-AV-7" depart="47.00" departLane="right-approaching_0" departPos="5.10" departSpeed="0.00" departDelay="3.60" arrival="115.00" arrivalLane="top-exit_0" arrivalPos="486.40" arrivalSpeed="16.27" duration="68.00" routeLength="979.43" waitingTime="0.00" waitingCount="0" stopTime="0.00" timeLoss="6.71" rerouteNo="0" devices="tripinfo_L2-AV-7 emissions_L2-AV-7 ssm_L2-AV-7 toc_L2-AV-7 driverstateL2-AV-7" vType="L2-AV-98@L2-AV-7" speedFactor="0.98" vaporized="">
        <emissions CO_abs="1795.625020" CO2_abs="225650.237201" HC_abs="10.743922" PMx_abs="2.762600" NOx_abs="79.449653" fuel_abs="96.997834" electricity_abs="0"/>
    </tripinfo>
    <tripinfo id="L2-AV-5" depart="31.00" departLane="right-approaching_0" departPos="5.10" departSpeed="0.00" departDelay="0.00" arrival="117.70" arrivalLane="bottom-exit_0" arrivalPos="489.60" arrivalSpeed="19.13" duration="86.70" routeLength="992.90" waitingTime="2.40" waitingCount="2" stopTime="0.00" timeLoss="33.94" rerouteNo="0" devices="tripinfo_L2-AV-5 emissions_L2-AV-5 ssm_L2-AV-5 toc_L2-AV-5 driverstateL2-AV-5" vType="L2-AV-79@L2-AV-5" speedFactor="1.15" vaporized="">
        <emissions CO_abs="4388.464163" CO2_abs="296652.210664" HC_abs="25.625861" PMx_abs="4.490601" NOx_abs="112.379361" fuel_abs="127.519280" electricity_abs="0"/>
    </tripinfo>
    <tripinfo id="L4-CV-2" depart="40.10" departLane="right-approaching_0" departPos="5.10" departSpeed="0.00" departDelay="2.10" arrival="120.60" arrivalLane="bottom-exit_0" arrivalPos="489.60" arrivalSpeed="17.45" duration="80.50" routeLength="992.90" waitingTime="0.00" waitingCount="0" stopTime="0.00" timeLoss="22.63" rerouteNo="0" devices="tripinfo_L4-CV-2 emissions_L4-CV-2 ssm_L4-CV-2 toc_L4-CV-2 driverstateL4-CV-2" vType="L4-CV-23@L4-CV-2" speedFactor="1.05" vaporized="">
        <emissions CO_abs="3236.723745" CO2_abs="264290.260907" HC_abs="19.182900" PMx_abs="3.777183" NOx_abs="97.873074" fuel_abs="113.607874" electricity_abs="0"/>
    </tripinfo>
    <tripinfo id="L2-CV-7" depart="43.50" departLane="right-approaching_0" departPos="5.10" departSpeed="0.00" departDelay="0.10" arrival="121.40" arrivalLane="bottom-exit_1" arrivalPos="489.60" arrivalSpeed="18.14" duration="77.90" routeLength="992.90" waitingTime="0.00" waitingCount="0" stopTime="0.00" timeLoss="22.23" rerouteNo="0" devices="tripinfo_L2-CV-7 emissions_L2-CV-7 ssm_L2-CV-7 toc_L2-CV-7 driverstateL2-CV-7" vType="L2-CV-14@L2-CV-7" speedFactor="1.09" vaporized="">
        <emissions CO_abs="3318.651340" CO2_abs="264539.610561" HC_abs="19.767624" PMx_abs="3.921971" NOx_abs="98.478480" fuel_abs="113.714986" electricity_abs="0"/>
    </tripinfo>
    <tripinfo id="L0-HDV-49" depart="77.00" departLane="top-approaching_0" departPos="5.10" departSpeed="0.00" departDelay="0.07" arrival="148.60" arrivalLane="left-exit_0" arrivalPos="431.00" arrivalSpeed="17.18" duration="71.60" routeLength="986.28" waitingTime="2.70" waitingCount="1" stopTime="0.00" timeLoss="11.68" rerouteNo="0" devices="tripinfo_L0-HDV-49 emissions_L0-HDV-49 ssm_L0-HDV-49" vType="L0-HDV-59" speedFactor="1.03" vaporized="">
        <emissions CO_abs="3430.632201" CO2_abs="229108.597018" HC_abs="20.892833" PMx_abs="4.179166" NOx_abs="92.512067" fuel_abs="98.483882" electricity_abs="0"/>
    </tripinfo>
    <tripinfo id="L4-CV-0" depart="0.00" departLane="bottom-approaching_0" departPos="5.10" departSpeed="0.00" departDelay="0.00" arrival="149.10" arrivalLane="right-exit_0" arrivalPos="486.40" arrivalSpeed="16.26" duration="149.10" routeLength="979.93" waitingTime="77.30" waitingCount="1" stopTime="0.00" timeLoss="87.86" rerouteNo="0" devices="tripinfo_L4-CV-0 emissions_L4-CV-0 ssm_L4-CV-0 toc_L4-CV-0 driverstateL4-CV-0" vType="L4-CV-89@L4-CV-0" speedFactor="0.98" vaporized="">
        <emissions CO_abs="15047.820204" CO2_abs="439741.944456" HC_abs="75.933868" PMx_abs="8.160267" NOx_abs="177.915597" fuel_abs="189.032669" electricity_abs="0"/>
    </tripinfo>
    <tripinfo id="L2-CV-1" depart="6.80" departLane="bottom-approaching_0" departPos="5.10" departSpeed="0.00" departDelay="0.60" arrival="149.10" arrivalLane="top-exit_0" arrivalPos="486.40" arrivalSpeed="16.85" duration="142.30" routeLength="995.17" waitingTime="70.20" waitingCount="1" stopTime="0.00" timeLoss="83.19" rerouteNo="0" devices="tripinfo_L2-CV-1 emissions_L2-CV-1 ssm_L2-CV-1 toc_L2-CV-1 driverstateL2-CV-1" vType="L2-CV-32@L2-CV-1" speedFactor="1.01" vaporized="">
        <emissions CO_abs="13956.013665" CO2_abs="425874.887592" HC_abs="70.925251" PMx_abs="7.886096" NOx_abs="171.722363" fuel_abs="183.071184" electricity_abs="0"/>
    </tripinfo>
    <tripinfo id="L0-HDV-24" depart="37.70" departLane="bottom-approaching_0" departPos="5.10" departSpeed="0.00" departDelay="0.02" arrival="151.00" arrivalLane="right-exit_0" arrivalPos="486.40" arrivalSpeed="16.31" duration="113.30" routeLength="979.93" waitingTime="39.40" waitingCount="1" stopTime="0.00" timeLoss="52.97" rerouteNo="0" devices="tripinfo_L0-HDV-24 emissions_L0-HDV-24 ssm_L0-HDV-24" vType="L0-HDV-3" speedFactor="0.99" vaporized="">
        <emissions CO_abs="10322.652978" CO2_abs="364244.711020" HC_abs="55.580847" PMx_abs="7.495637" NOx_abs="154.452453" fuel_abs="156.575765" electricity_abs="0"/>
    </tripinfo>
    <tripinfo id="L4-CV-3" depart="59.90" departLane="bottom-approaching_0" departPos="5.10" departSpeed="0.00" departDelay="2.90" arrival="152.80" arrivalLane="top-exit_1" arrivalPos="486.40" arrivalSpeed="18.72" duration="92.90" routeLength="995.17" waitingTime="15.90" waitingCount="1" stopTime="0.00" timeLoss="39.72" rerouteNo="0" devices="tripinfo_L4-CV-3 emissions_L4-CV-3 ssm_L4-CV-3 toc_L4-CV-3 driverstateL4-CV-3" vType="L4-CV-2@L4-CV-3" speedFactor="1.12" vaporized="">
        <emissions CO_abs="4315.102355" CO2_abs="284149.558264" HC_abs="25.118788" PMx_abs="4.646330" NOx_abs="108.914243" fuel_abs="122.144540" electricity_abs="0"/>
    </tripinfo>
    <tripinfo id="L0-HDV-9" depart="14.20" departLane="top-approaching_0" departPos="5.10" departSpeed="0.00" departDelay="0.07" arrival="152.90" arrivalLane="bottom-exit_1" arrivalPos="489.60" arrivalSpeed="18.63" duration="138.70" routeLength="995.17" waitingTime="61.70" waitingCount="1" stopTime="0.00" timeLoss="85.27" rerouteNo="0" devices="tripinfo_L0-HDV-9 emissions_L0-HDV-9 ssm_L0-HDV-9" vType="L0-HDV-38" speedFactor="1.12" vaporized="">
        <emissions CO_abs="13814.950327" CO2_abs="403118.097475" HC_abs="72.168380" PMx_abs="8.086831" NOx_abs="168.703134" fuel_abs="173.288475" electricity_abs="0"/>
    </tripinfo>
    <tripinfo id="L0-HDV-7" depart="11.00" departLane="bottom-approaching_0" departPos="5.10" departSpeed="0.00" departDelay="0.01" arrival="153.40" arrivalLane="top-exit_0" arrivalPos="486.40" arrivalSpeed="15.43" duration="142.40" routeLength="995.17" waitingTime="65.90" waitingCount="1" stopTime="0.00" timeLoss="78.30" rerouteNo="0" devices="tripinfo_L0-HDV-7 emissions_L0-HDV-7 ssm_L0-HDV-7" vType="L0-HDV-59" speedFactor="0.93" vaporized="">
        <emissions CO_abs="13791.208931" CO2_abs="389713.940801" HC_abs="71.834767" PMx_abs="8.056162" NOx_abs="165.573292" fuel_abs="167.526350" electricity_abs="0"/>
    </tripinfo>
    <tripinfo id="L0-HDV-12" depart="21.90" departLane="top-approaching_0" departPos="5.10" departSpeed="0.00" departDelay="3.06" arrival="153.90" arrivalLane="bottom-exit_1" arrivalPos="489.60" arrivalSpeed="20.66" duration="132.00" routeLength="995.17" waitingTime="61.30" waitingCount="1" stopTime="0.00" timeLoss="83.85" rerouteNo="0" devices="tripinfo_L0-HDV-12 emissions_L0-HDV-12 ssm_L0-HDV-12" vType="L0-HDV-90" speedFactor="1.24" vaporized="">
        <emissions CO_abs="13827.156262" CO2_abs="417703.454121" HC_abs="72.717794" PMx_abs="8.700677" NOx_abs="176.694380" fuel_abs="179.557412" electricity_abs="0"/>
    </tripinfo>
    <tripinfo id="L0-HDV-4" depart="6.30" departLane="top-approaching_0" departPos="5.10" departSpeed="0.00" departDelay="0.02" arrival="154.30" arrivalLane="bottom-exit_0" arrivalPos="489.60" arrivalSpeed="14.97" duration="148.00" routeLength="995.17" waitingTime="66.20" waitingCount="1" stopTime="0.00" timeLoss="81.50" rerouteNo="0" devices="tripinfo_L0-HDV-4 emissions_L0-HDV-4 ssm_L0-HDV-4" vType="L0-HDV-68" speedFactor="0.90" vaporized="">
        <emissions CO_abs="13424.282256" CO2_abs="351684.155843" HC_abs="68.420238" PMx_abs="6.928339" NOx_abs="147.077764" fuel_abs="151.179712" electricity_abs="0"/>
    </tripinfo>
    <tripinfo id="L0-HDV-51" depart="80.10" departLane="top-approaching_0" departPos="5.10" departSpeed="0.00" departDelay="0.03" arrival="154.30" arrivalLane="left-exit_0" arrivalPos="431.00" arrivalSpeed="15.22" duration="74.20" routeLength="986.28" waitingTime="0.00" waitingCount="0" stopTime="0.00" timeLoss="6.58" rerouteNo="0" devices="tripinfo_L0-HDV-51 emissions_L0-HDV-51 ssm_L0-HDV-51" vType="L0-HDV-64" speedFactor="0.91" vaporized="">
        <emissions CO_abs="2000.407606" CO2_abs="174617.645924" HC_abs="12.959193" PMx_abs="2.694931" NOx_abs="67.279490" fuel_abs="75.060790" electricity_abs="0"/>
    </tripinfo>
    <tripinfo id="L4-AV-3" depart="63.50" departLane="bottom-approaching_0" departPos="5.10" departSpeed="0.00" departDelay="6.50" arrival="157.20" arrivalLane="right-exit_0" arrivalPos="486.40" arrivalSpeed="15.82" duration="93.70" routeLength="979.93" waitingTime="0.00" waitingCount="0" stopTime="0.00" timeLoss="30.71" rerouteNo="0" devices="tripinfo_L4-AV-3 emissions_L4-AV-3 ssm_L4-AV-3 toc_L4-AV-3 driverstateL4-AV-3" vType="L4-AV-56@L4-AV-3" speedFactor="0.95" vaporized="">
        <emissions CO_abs="2852.790755" CO2_abs="242405.388097" HC_abs="16.184708" PMx_abs="3.189645" NOx_abs="88.301561" fuel_abs="104.200569" electricity_abs="0"/>
    </tripinfo>
    <tripinfo id="L0-HDV-23" depart="36.20" departLane="top-approaching_0" departPos="5.10" departSpeed="0.00" departDelay="0.09" arrival="159.10" arrivalLane="bottom-exit_0" arrivalPos="489.60" arrivalSpeed="16.98" duration="122.90" routeLength="995.17" waitingTime="47.90" waitingCount="1" stopTime="0.00" timeLoss="64.26" rerouteNo="0" devices="tripinfo_L0-HDV-23 emissions_L0-HDV-23 ssm_L0-HDV-23" vType="L0-HDV-11" speedFactor="1.02" vaporized="">
        <emissions CO_abs="9902.818471" CO2_abs="311045.182030" HC_abs="51.844720" PMx_abs="6.060308" NOx_abs="128.926248" fuel_abs="133.708631" electricity_abs="0"/>
    </tripinfo>
    <tripinfo id="L2-CV-3" depart="18.60" departLane="top-approaching_0" departPos="5.10" departSpeed="0.00" departDelay="0.00" arrival="160.40" arrivalLane="bottom-exit_0" arrivalPos="489.60" arrivalSpeed="15.01" duration="141.80" routeLength="995.17" waitingTime="53.80" waitingCount="1" stopTime="0.00" timeLoss="75.66" rerouteNo="0" devices="tripinfo_L2-CV-3 emissions_L2-CV-3 ssm_L2-CV-3 toc_L2-CV-3 driverstateL2-CV-3" vType="L2-CV-57@L2-CV-3" speedFactor="0.90" vaporized="">
        <emissions CO_abs="9999.176326" CO2_abs="365353.417883" HC_abs="51.941016" PMx_abs="5.971375" NOx_abs="142.987891" fuel_abs="157.054255" electricity_abs="0"/>
    </tripinfo>
    <tripinfo id="L0-HDV-58" depart="91.10" departLane="top-approaching_0" departPos="5.10" departSpeed="0.00" departDelay="0.04" arrival="160.40" arrivalLane="left-exit_0" arrivalPos="431.00" arrivalSpeed="17.18" duration="69.30" routeLength="986.28" waitingTime="0.00" waitingCount="0" stopTime="0.00" timeLoss="9.33" rerouteNo="0" devices="tripinfo_L0-HDV-58 emissions_L0-HDV-58 ssm_L0-HDV-58" vType="L0-HDV-94" speedFactor="1.03" vaporized="">
        <emissions CO_abs="2214.026101" CO2_abs="191922.408775" HC_abs="14.077315" PMx_abs="2.971124" NOx_abs="73.170099" fuel_abs="82.499419" electricity_abs="0"/>
    </tripinfo>
    <tripinfo id="L0-HDV-27" depart="42.40" departLane="top-approaching_0" departPos="5.10" departSpeed="0.00" departDelay="0.01" arrival="161.80" arrivalLane="bottom-exit_1" arrivalPos="489.60" arrivalSpeed="17.59" duration="119.40" routeLength="995.17" waitingTime="39.70" waitingCount="1" stopTime="0.00" timeLoss="62.82" rerouteNo="0" devices="tripinfo_L0-HDV-27 emissions_L0-HDV-27 ssm_L0-HDV-27" vType="L0-HDV-78" speedFactor="1.06" vaporized="">
        <emissions CO_abs="9848.705999" CO2_abs="334803.335295" HC_abs="52.504413" PMx_abs="6.465887" NOx_abs="138.510199" fuel_abs="143.920975" electricity_abs="0"/>
    </tripinfo>
    <tripinfo id="L0-HDV-59" depart="94.70" departLane="top-approaching_0" departPos="5.10" departSpeed="0.00" departDelay="2.07" arrival="161.80" arrivalLane="left-exit_1" arrivalPos="431.00" arrivalSpeed="18.77" duration="67.10" routeLength="986.28" waitingTime="0.00" waitingCount="0" stopTime="0.00" timeLoss="12.36" rerouteNo="0" devices="tripinfo_L0-HDV-59 emissions_L0-HDV-59 ssm_L0-HDV-59" vType="L0-HDV-86" speedFactor="1.13" vaporized="">
        <emissions CO_abs="2656.929578" CO2_abs="211627.206054" HC_abs="16.948235" PMx_abs="3.574063" NOx_abs="82.769619" fuel_abs="90.969475" electricity_abs="0"/>
    </tripinfo>
    <tripinfo id="L0-HDV-37" depart="65.30" departLane="bottom-approaching_0" departPos="5.10" departSpeed="0.00" departDelay="7.21" arrival="162.80" arrivalLane="right-exit_0" arrivalPos="486.40" arrivalSpeed="14.45" duration="97.50" routeLength="979.93" waitingTime="0.00" waitingCount="0" stopTime="0.00" timeLoss="28.94" rerouteNo="0" devices="tripinfo_L0-HDV-37 emissions_L0-HDV-37 ssm_L0-HDV-37" vType="L0-HDV-92" speedFactor="0.87" vaporized="">
        <emissions CO_abs="3557.933818" CO2_abs="205256.454027" HC_abs="20.878690" PMx_abs="3.357140" NOx_abs="81.333563" fuel_abs="88.231794" electricity_abs="0"/>
    </tripinfo>
    <tripinfo id="L0-HDV-18" depart="28.30" departLane="top-approaching_0" departPos="5.10" departSpeed="0.00" departDelay="0.04" arrival="163.60" arrivalLane="right-exit_1" arrivalPos="486.40" arrivalSpeed="18.17" duration="135.30" routeLength="992.21" waitingTime="58.40" waitingCount="2" stopTime="0.00" timeLoss="79.90" rerouteNo="0" devices="tripinfo_L0-HDV-18 emissions_L0-HDV-18 ssm_L0-HDV-18" vType="L0-HDV-85" speedFactor="1.09" vaporized="">
        <emissions CO_abs="13270.388308" CO2_abs="385840.896063" HC_abs="69.186302" PMx_abs="7.813327" NOx_abs="161.949011" fuel_abs="165.861426" electricity_abs="0"/>
    </tripinfo>
    <tripinfo id="L0-HDV-32" depart="51.80" departLane="top-approaching_0" departPos="5.10" departSpeed="0.00" departDelay="1.56" arrival="163.60" arrivalLane="bottom-exit_1" arrivalPos="489.60" arrivalSpeed="16.49" duration="111.80" routeLength="995.17" waitingTime="30.50" waitingCount="1" stopTime="0.00" timeLoss="51.35" rerouteNo="0" devices="tripinfo_L0-HDV-32 emissions_L0-HDV-32 ssm_L0-HDV-32" vType="L0-HDV-6" speedFactor="0.99" vaporized="">
        <emissions CO_abs="8051.877997" CO2_abs="291151.630889" HC_abs="42.743799" PMx_abs="5.175145" NOx_abs="117.091497" fuel_abs="125.156735" electricity_abs="0"/>
    </tripinfo>