<additional>
  <tlLogic id="center" type="actuated" programID="my_program" offset="10">
  	<param key="max-gap" value="3.0"/>
  	<param key="detector-gap" value="2.0"/>
  	<param key="passing-time" value="2.0"/>
  	<param key="vTypes" value=""/>
  	<param key="show-detectors" value="true"/>
  	<param key="file" value="NULL"/>
  	<param key="freq" value="300"/>

   	<phase duration="10" minDur="8" maxDur="12" state="GGGrrrrrrrrr"/>
	<phase duration="5" minDur="4" maxDur="6" state="GGyrrrrrrrrr"/>
	<phase duration="8" minDur="5" maxDur="10" state="GGrrrrGGsrrr"/>

	<phase duration="5" minDur="6" maxDur="4" state="yyrrrrGGsrrr"/>
	<phase duration="10" minDur="8" maxDur="12" state="rrrrrrGGGrrr"/>
	<phase duration="5" minDur="4" maxDur="6" state="rrrrrryyyrrr"/> 

	<phase duration="10" minDur="8" maxDur="12" state="rrrGGGrrrrrr"/>
	<phase duration="5" minDur="4" maxDur="6" state="rrrGGyrrrrrr"/>
	<phase duration="8" minDur="5" maxDur="10" state="rrrGGrrrrGGs"/>  
	
	<phase duration="5" minDur="4" maxDur="6"  state="rrryyrrrrGGs"/>
	<phase duration="10" minDur="8" maxDur="12" state="rrrrrrrrrGGG"/>
	<phase duration="5" minDur="4" maxDur="6" state="rrrrrrrrryyy"/>
	
	<phase duration="10" minDur="10" maxDur="10" state="rrrrrrrrrrrr"/>
 </tlLogic>

 <rerouter id="123" edges="closed-lane">
   <interval begin="0" end="1000">
      <closingLaneReroute id="closed-lane_0">
	  	<param key="closingLaneReroute" value="true"/> 
	  </closingLaneReroute>
   </interval>

</rerouter>

</additional>