<connections>
	<connection from="left-short-approaching" to="bottom-exit" fromLane="0" toLane="0" />
	<connection from="left-short-approaching" to="right-exit" fromLane="1" toLane="0" />
	<connection from="left-short-approaching" to="top-exit" fromLane="2" toLane="0" />
	<!-- <connection from="left-short-approaching" to="top-exit" fromLane="1" toLane="0" /> -->
	
	<!-- <connection from="top-approaching" to="left-exit" fromLane="0" toLane="0" /> -->
	<connection from="top-approaching" to="closed-lane" fromLane="0" toLane="0" />
	<connection from="top-approaching" to="bottom-exit" fromLane="1" toLane="0" />
	<connection from="top-approaching" to="right-exit" fromLane="2" toLane="0" />
	
	<connection from="right-approaching" to="top-exit" fromLane="0" toLane="0" />
	<!-- <connection from="right-approaching" to="left-exit" fromLane="1" toLane="0" /> -->
	<connection from="right-approaching" to="closed-lane" fromLane="1" toLane="0" />
	<connection from="right-approaching" to="bottom-exit" fromLane="2" toLane="0" />
	
	<connection from="bottom-approaching" to="right-exit" fromLane="0" toLane="0" />
	<connection from="bottom-approaching" to="top-exit" fromLane="1" toLane="0" />
	<connection from="bottom-approaching" to="closed-lane" fromLane="2" toLane="0" />
	<!-- <connection from="bottom-approaching" to="left-exit" fromLane="2" toLane="0" /> -->

</connections>