<configuration>

<input>
    <net-file value="intersection.net.xml"/>
    <route-files value="routes.rou.xml"/>
    <additional-files value="traffic-lights.add.xml"/>
</input>
 
 

</configuration>