<configuration>
<input>
 <node-files value="node.nod.xml"/>
 <edge-files value="edge.edg.xml"/>
 <connection-files value="connection.con.xml"/>
 <opposites.guess  value ="true"/>
 <opposites.guess.fix-lengths  value ="true"/>
</input>
<output>
    <output-file value="intersection.net.xml"/>
</output>
<report>
    <verbose value="true"/>
</report>
</configuration>