<?xml version="1.0" encoding="UTF-8"?>

<!-- generated on 02/14/21 17:25:10 by Eclipse SUMO netconvert Version 1.8.0
<configuration xmlns:xsi="http://www.w3.org/2001/XMLSchema-instance" xsi:noNamespaceSchemaLocation="http://sumo.dlr.de/xsd/netconvertConfiguration.xsd">

    <input>
        <node-files value="node.nod.xml"/>
        <edge-files value="edge.edg.xml"/>
        <connection-files value="connection.con.xml"/>
    </input>

    <output>
        <output-file value="intersection.net.xml"/>
    </output>

    <processing>
        <opposites.guess value="true"/>
        <opposites.guess.fix-lengths value="true"/>
    </processing>

    <report>
        <verbose value="true"/>
        <aggregate-warnings value="5"/>
    </report>

</configuration>
-->

<net version="1.6" junctionCornerDetail="5" limitTurnSpeed="5.50" xmlns:xsi="http://www.w3.org/2001/XMLSchema-instance" xsi:noNamespaceSchemaLocation="http://sumo.dlr.de/xsd/net_file.xsd">

    <location netOffset="500.00,500.00" convBoundary="0.00,0.00,1000.00,1000.00" origBoundary="-500.00,-500.00,500.00,500.00" projParameter="!"/>

    <edge id=":adjacent-end_0" function="internal">
        <lane id=":adjacent-end_0_0" index="0" speed="11.11" length="8.81" shape="459.00,504.80 456.54,504.30 455.00,503.20 453.46,502.10 451.00,501.60"/>
    </edge>
    <edge id=":adjacent-end_1" function="internal">
        <lane id=":adjacent-end_1_0" index="0" speed="19.44" length="8.81" shape="451.00,492.00 453.46,492.50 455.00,493.60 456.54,494.70 459.00,495.20"/>
        <lane id=":adjacent-end_1_1" index="1" speed="19.44" length="8.81" shape="451.00,495.20 453.46,495.70 455.00,496.80 456.54,497.90 459.00,498.40"/>
    </edge>
    <edge id=":blockage-end_0" function="internal">
        <lane id=":blockage-end_0_0" index="0" speed="11.11" length="0.10" shape="470.00,504.80 470.00,504.80"/>
        <lane id=":blockage-end_0_1" index="1" speed="11.11" length="0.10" shape="470.00,501.60 470.00,501.60"/>
    </edge>
    <edge id=":bottom-node_0" function="internal">
        <lane id=":bottom-node_0_0" index="0" speed="3.65" length="4.67" shape="498.40,0.00 499.20,-1.20 500.00,-1.60 500.80,-1.20 501.60,0.00"/>
    </edge>
    <edge id=":center_0" function="internal">
        <lane id=":center_0_0" index="0" speed="8.10" length="14.57" shape="492.00,513.60 491.65,508.35 490.60,504.60 488.85,502.35 486.40,501.60"/>
    </edge>
    <edge id=":center_1" function="internal">
        <lane id=":center_1_0" index="0" speed="15.28" length="24.25" shape="495.20,513.60 495.70,505.45 496.80,498.94 497.90,493.76 498.40,489.60"/>
    </edge>
    <edge id=":center_2" function="internal">
        <lane id=":center_2_0" index="0" speed="10.36" length="11.52" shape="498.40,513.60 499.35,506.95 501.82,502.84"/>
    </edge>
    <edge id=":center_12" function="internal">
        <lane id=":center_12_0" index="0" speed="10.36" length="13.00" shape="501.82,502.84 502.20,502.20 506.95,499.35 513.60,498.40"/>
    </edge>
    <edge id=":center_3" function="internal">
        <lane id=":center_3_0" index="0" speed="8.10" length="14.57" shape="513.60,508.00 508.35,508.35 504.60,509.40 502.35,511.15 501.60,513.60"/>
    </edge>
    <edge id=":center_4" function="internal">
        <lane id=":center_4_0" index="0" speed="15.28" length="27.43" shape="513.60,504.80 504.98,504.30 498.61,503.20 492.94,502.10 486.40,501.60"/>
    </edge>
    <edge id=":center_5" function="internal">
        <lane id=":center_5_0" index="0" speed="9.84" length="8.68" shape="513.60,501.60 506.95,500.85 505.16,500.00"/>
    </edge>
    <edge id=":center_13" function="internal">
        <lane id=":center_13_0" index="0" speed="9.84" length="13.32" shape="505.16,500.00 502.20,498.60 499.35,494.85 498.40,489.60"/>
    </edge>
    <edge id=":center_6" function="internal">
        <lane id=":center_6_0" index="0" speed="7.33" length="11.73" shape="508.00,489.60 508.35,493.45 509.40,496.20 511.15,497.85 513.60,498.40"/>
    </edge>
    <edge id=":center_7" function="internal">
        <lane id=":center_7_0" index="0" speed="15.28" length="24.25" shape="504.80,489.60 504.30,497.75 503.20,504.26 502.10,509.44 501.60,513.60"/>
    </edge>
    <edge id=":center_8" function="internal">
        <lane id=":center_8_0" index="0" speed="9.84" length="8.42" shape="501.60,489.60 500.65,494.85 498.78,497.31"/>
    </edge>
    <edge id=":center_14" function="internal">
        <lane id=":center_14_0" index="0" speed="9.84" length="13.57" shape="498.78,497.31 497.80,498.60 493.05,500.85 486.40,501.60"/>
    </edge>
    <edge id=":center_9" function="internal">
        <lane id=":center_9_0" index="0" speed="8.10" length="14.57" shape="486.40,495.20 491.65,494.85 495.40,493.80 497.65,492.05 498.40,489.60"/>
    </edge>
    <edge id=":center_10" function="internal">
        <lane id=":center_10_0" index="0" speed="15.28" length="27.20" shape="486.40,498.40 513.60,498.40"/>
    </edge>
    <edge id=":center_11" function="internal">
        <lane id=":center_11_0" index="0" speed="10.36" length="9.99" shape="486.40,498.40 493.05,499.35 495.86,501.04"/>
    </edge>
    <edge id=":center_15" function="internal">
        <lane id=":center_15_0" index="0" speed="10.36" length="14.52" shape="495.86,501.04 497.80,502.20 500.65,506.95 501.60,513.60"/>
    </edge>
    <edge id=":left-node_0" function="internal">
        <lane id=":left-node_0_0" index="0" speed="3.65" length="4.67" shape="0.00,501.60 -1.20,500.80 -1.60,500.00 -1.20,499.20 0.00,498.40"/>
    </edge>
    <edge id=":right-node_0" function="internal">
        <lane id=":right-node_0_0" index="0" speed="3.65" length="4.67" shape="1000.00,498.40 1001.20,499.20 1001.60,500.00 1001.20,500.80 1000.00,501.60"/>
    </edge>
    <edge id=":top-node_0" function="internal">
        <lane id=":top-node_0_0" index="0" speed="3.65" length="4.67" shape="501.60,1000.00 500.80,1001.20 500.00,1001.60 499.20,1001.20 498.40,1000.00"/>
    </edge>

    <edge id="bottom-approaching" from="bottom-node" to="center" priority="78">
        <lane id="bottom-approaching_0" index="0" speed="19.44" length="489.60" shape="508.00,0.00 508.00,489.60"/>
        <lane id="bottom-approaching_1" index="1" speed="19.44" length="489.60" shape="504.80,0.00 504.80,489.60"/>
        <lane id="bottom-approaching_2" index="2" speed="19.44" length="489.60" shape="501.60,0.00 501.60,489.60">
            <neigh lane="bottom-exit_0"/>
        </lane>
    </edge>
    <edge id="bottom-exit" from="center" to="bottom-node" priority="46">
        <lane id="bottom-exit_0" index="0" speed="11.11" length="489.60" shape="498.40,489.60 498.40,0.00">
            <neigh lane="bottom-approaching_2"/>
        </lane>
    </edge>
    <edge id="closed-lane" from="center" to="blockage-end" priority="46">
        <lane id="closed-lane_0" index="0" speed="11.11" length="16.40" shape="486.40,504.80 470.00,504.80"/>
        <lane id="closed-lane_1" index="1" speed="11.11" length="16.40" shape="486.40,501.60 470.00,501.60"/>
    </edge>
    <edge id="left-exit" from="adjacent-end" to="left-node" priority="46">
        <lane id="left-exit_0" index="0" speed="11.11" length="451.00" shape="451.00,501.60 0.00,501.60">
            <neigh lane="left-long-approaching_2"/>
        </lane>
    </edge>
    <edge id="left-long-approaching" from="left-node" to="adjacent-end" priority="78">
        <lane id="left-long-approaching_0" index="0" speed="19.44" length="451.00" shape="0.00,492.00 451.00,492.00"/>
        <lane id="left-long-approaching_1" index="1" speed="19.44" length="451.00" shape="0.00,495.20 451.00,495.20"/>
        <lane id="left-long-approaching_2" index="2" speed="19.44" length="451.00" shape="0.00,498.40 451.00,498.40">
            <neigh lane="left-exit_0"/>
        </lane>
    </edge>
    <edge id="left-short-approaching" from="adjacent-end" to="center" priority="78">
        <lane id="left-short-approaching_0" index="0" speed="19.44" length="27.40" shape="459.00,495.20 486.40,495.20"/>
        <lane id="left-short-approaching_1" index="1" speed="19.44" length="27.40" shape="459.00,498.40 486.40,498.40"/>
    </edge>
    <edge id="remerging-lane" from="blockage-end" to="adjacent-end" priority="46">
        <lane id="remerging-lane_0" index="0" speed="11.11" length="11.00" shape="470.00,504.80 459.00,504.80"/>
        <lane id="remerging-lane_1" index="1" speed="11.11" length="11.00" shape="470.00,501.60 459.00,501.60"/>
    </edge>
    <edge id="right-approaching" from="right-node" to="center" priority="78">
        <lane id="right-approaching_0" index="0" speed="19.44" length="486.40" shape="1000.00,508.00 513.60,508.00"/>
        <lane id="right-approaching_1" index="1" speed="19.44" length="486.40" shape="1000.00,504.80 513.60,504.80"/>
        <lane id="right-approaching_2" index="2" speed="19.44" length="486.40" shape="1000.00,501.60 513.60,501.60">
            <neigh lane="right-exit_0"/>
        </lane>
    </edge>
    <edge id="right-exit" from="center" to="right-node" priority="46">
        <lane id="right-exit_0" index="0" speed="11.11" length="486.40" shape="513.60,498.40 1000.00,498.40">
            <neigh lane="right-approaching_2"/>
        </lane>
    </edge>
    <edge id="top-approaching" from="top-node" to="center" priority="78">
        <lane id="top-approaching_0" index="0" speed="19.44" length="486.40" shape="492.00,1000.00 492.00,513.60"/>
        <lane id="top-approaching_1" index="1" speed="19.44" length="486.40" shape="495.20,1000.00 495.20,513.60"/>
        <lane id="top-approaching_2" index="2" speed="19.44" length="486.40" shape="498.40,1000.00 498.40,513.60">
            <neigh lane="top-exit_0"/>
        </lane>
    </edge>
    <edge id="top-exit" from="center" to="top-node" priority="46">
        <lane id="top-exit_0" index="0" speed="11.11" length="486.40" shape="501.60,513.60 501.60,1000.00">
            <neigh lane="top-approaching_2"/>
        </lane>
    </edge>

    <tlLogic id="center" type="static" programID="0" offset="0">
        <phase duration="29" state="GGrrrrGGrrrr"/>
        <phase duration="5"  state="yyrrrryyrrrr"/>
        <phase duration="6"  state="rrGrrrrrGrrr"/>
        <phase duration="5"  state="rryrrrrryrrr"/>
        <phase duration="29" state="rrrGGrrrrGGr"/>
        <phase duration="5"  state="rrryyrrrryyr"/>
        <phase duration="6"  state="rrrrrGrrrrrG"/>
        <phase duration="5"  state="rrrrryrrrrry"/>
    </tlLogic>

    <junction id="adjacent-end" type="priority" x="455.00" y="500.00" incLanes="remerging-lane_0 remerging-lane_1 left-long-approaching_0 left-long-approaching_1 left-long-approaching_2" intLanes=":adjacent-end_0_0 :adjacent-end_1_0 :adjacent-end_1_1" shape="459.00,506.40 459.00,493.60 455.97,492.77 454.03,491.23 452.79,490.64 451.00,490.40 451.00,503.20 454.03,504.03 455.97,505.57 457.21,506.16">
        <request index="0" response="000" foes="000" cont="0"/>
        <request index="1" response="000" foes="000" cont="0"/>
        <request index="2" response="000" foes="000" cont="0"/>
    </junction>
    <junction id="blockage-end" type="priority" x="470.00" y="500.00" incLanes="closed-lane_0 closed-lane_1" intLanes=":blockage-end_0_0 :blockage-end_0_1" shape="470.00,506.40 470.00,500.00 470.00,506.40">
        <request index="0" response="00" foes="00" cont="0"/>
        <request index="1" response="00" foes="00" cont="0"/>
    </junction>
    <junction id="bottom-node" type="priority" x="500.00" y="0.00" incLanes="bottom-exit_0" intLanes=":bottom-node_0_0" shape="500.00,0.00 496.80,0.00 500.00,0.00">
        <request index="0" response="0" foes="0" cont="0"/>
    </junction>
    <junction id="center" type="traffic_light" x="500.00" y="500.00" incLanes="top-approaching_0 top-approaching_1 top-approaching_2 right-approaching_0 right-approaching_1 right-approaching_2 bottom-approaching_0 bottom-approaching_1 bottom-approaching_2 left-short-approaching_0 left-short-approaching_1" intLanes=":center_0_0 :center_1_0 :center_12_0 :center_3_0 :center_4_0 :center_13_0 :center_6_0 :center_7_0 :center_14_0 :center_9_0 :center_10_0 :center_15_0" shape="490.40,513.60 503.20,513.60 504.36,511.38 505.80,510.60 507.82,510.04 510.42,509.71 513.60,509.60 513.60,496.80 511.38,496.00 510.60,495.00 510.04,493.60 509.71,491.80 509.60,489.60 496.80,489.60 495.64,491.82 494.20,492.60 492.18,493.16 489.58,493.49 486.40,493.60 486.40,506.40 488.62,507.20 489.40,508.20 489.96,509.60 490.29,511.40">
        <request index="0"  response="000000000000" foes="000100010000" cont="0"/>
        <request index="1"  response="100000100000" foes="111100110000" cont="0"/>
        <request index="2"  response="100011100000" foes="110011110000" cont="1"/>
        <request index="3"  response="000010000000" foes="100010000000" cont="0"/>
        <request index="4"  response="000110000111" foes="100110000111" cont="0"/>
        <request index="5"  response="011110000110" foes="011110000110" cont="1"/>
        <request index="6"  response="000000000000" foes="010000000100" cont="0"/>
        <request index="7"  response="100000100000" foes="110000111100" cont="0"/>
        <request index="8"  response="100000100011" foes="110000110011" cont="1"/>
        <request index="9"  response="000000000010" foes="000000100010" cont="0"/>
        <request index="10" response="000111000110" foes="000111100110" cont="0"/>
        <request index="11" response="000110011110" foes="000110011110" cont="1"/>
    </junction>
    <junction id="left-node" type="priority" x="0.00" y="500.00" incLanes="left-exit_0" intLanes=":left-node_0_0" shape="0.00,500.00 0.00,503.20 0.00,500.00">
        <request index="0" response="0" foes="0" cont="0"/>
    </junction>
    <junction id="right-node" type="priority" x="1000.00" y="500.00" incLanes="right-exit_0" intLanes=":right-node_0_0" shape="1000.00,500.00 1000.00,496.80 1000.00,500.00">
        <request index="0" response="0" foes="0" cont="0"/>
    </junction>
    <junction id="top-node" type="priority" x="500.00" y="1000.00" incLanes="top-exit_0" intLanes=":top-node_0_0" shape="500.00,1000.00 503.20,1000.00 500.00,1000.00">
        <request index="0" response="0" foes="0" cont="0"/>
    </junction>

    <junction id=":center_12_0" type="internal" x="501.82" y="502.84" incLanes=":center_2_0 bottom-approaching_0 bottom-approaching_1" intLanes=":center_4_0 :center_5_0 :center_6_0 :center_7_0 :center_10_0 :center_11_0"/>
    <junction id=":center_13_0" type="internal" x="505.16" y="500.00" incLanes=":center_5_0 left-short-approaching_0 left-short-approaching_1" intLanes=":center_1_0 :center_2_0 :center_7_0 :center_8_0 :center_9_0 :center_10_0"/>
    <junction id=":center_14_0" type="internal" x="498.78" y="497.31" incLanes=":center_8_0 top-approaching_0 top-approaching_1" intLanes=":center_0_0 :center_1_0 :center_4_0 :center_5_0 :center_10_0 :center_11_0"/>
    <junction id=":center_15_0" type="internal" x="495.86" y="501.04" incLanes=":center_11_0 right-approaching_0 right-approaching_1" intLanes=":center_1_0 :center_2_0 :center_3_0 :center_4_0 :center_7_0 :center_8_0"/>

    <connection from="bottom-approaching" to="right-exit" fromLane="0" toLane="0" via=":center_6_0" tl="center" linkIndex="6" dir="r" state="O"/>
    <connection from="bottom-approaching" to="top-exit" fromLane="1" toLane="0" via=":center_7_0" tl="center" linkIndex="7" dir="s" state="O"/>
    <connection from="bottom-approaching" to="closed-lane" fromLane="2" toLane="1" via=":center_8_0" tl="center" linkIndex="8" dir="l" state="o"/>
    <connection from="bottom-exit" to="bottom-approaching" fromLane="0" toLane="2" via=":bottom-node_0_0" dir="t" state="M"/>
    <connection from="closed-lane" to="remerging-lane" fromLane="0" toLane="0" via=":blockage-end_0_0" dir="s" state="M"/>
    <connection from="closed-lane" to="remerging-lane" fromLane="1" toLane="1" via=":blockage-end_0_1" dir="s" state="M"/>
    <connection from="left-exit" to="left-long-approaching" fromLane="0" toLane="2" via=":left-node_0_0" dir="t" state="M"/>
    <connection from="left-long-approaching" to="left-short-approaching" fromLane="0" toLane="0" via=":adjacent-end_1_0" dir="s" state="M"/>
    <connection from="left-long-approaching" to="left-short-approaching" fromLane="1" toLane="1" via=":adjacent-end_1_1" dir="s" state="M"/>
    <connection from="left-short-approaching" to="bottom-exit" fromLane="0" toLane="0" via=":center_9_0" tl="center" linkIndex="9" dir="r" state="o"/>
    <connection from="left-short-approaching" to="right-exit" fromLane="1" toLane="0" via=":center_10_0" tl="center" linkIndex="10" dir="s" state="o"/>
    <connection from="left-short-approaching" to="top-exit" fromLane="1" toLane="0" via=":center_11_0" tl="center" linkIndex="11" dir="l" state="o"/>
    <connection from="remerging-lane" to="left-exit" fromLane="0" toLane="0" via=":adjacent-end_0_0" dir="s" state="M"/>
    <connection from="right-approaching" to="top-exit" fromLane="0" toLane="0" via=":center_3_0" tl="center" linkIndex="3" dir="r" state="o"/>
    <connection from="right-approaching" to="closed-lane" fromLane="1" toLane="1" via=":center_4_0" tl="center" linkIndex="4" dir="s" state="o"/>
    <connection from="right-approaching" to="bottom-exit" fromLane="2" toLane="0" via=":center_5_0" tl="center" linkIndex="5" dir="l" state="o"/>
    <connection from="right-exit" to="right-approaching" fromLane="0" toLane="2" via=":right-node_0_0" dir="t" state="M"/>
    <connection from="top-approaching" to="closed-lane" fromLane="0" toLane="1" via=":center_0_0" tl="center" linkIndex="0" dir="r" state="O"/>
    <connection from="top-approaching" to="bottom-exit" fromLane="1" toLane="0" via=":center_1_0" tl="center" linkIndex="1" dir="s" state="O"/>
    <connection from="top-approaching" to="right-exit" fromLane="2" toLane="0" via=":center_2_0" tl="center" linkIndex="2" dir="l" state="o"/>
    <connection from="top-exit" to="top-approaching" fromLane="0" toLane="2" via=":top-node_0_0" dir="t" state="M"/>

    <connection from=":adjacent-end_0" to="left-exit" fromLane="0" toLane="0" dir="s" state="M"/>
    <connection from=":adjacent-end_1" to="left-short-approaching" fromLane="0" toLane="0" dir="s" state="M"/>
    <connection from=":adjacent-end_1" to="left-short-approaching" fromLane="1" toLane="1" dir="s" state="M"/>
    <connection from=":blockage-end_0" to="remerging-lane" fromLane="0" toLane="0" dir="s" state="M"/>
    <connection from=":blockage-end_0" to="remerging-lane" fromLane="1" toLane="1" dir="s" state="M"/>
    <connection from=":bottom-node_0" to="bottom-approaching" fromLane="0" toLane="2" dir="t" state="M"/>
    <connection from=":center_0" to="closed-lane" fromLane="0" toLane="1" dir="r" state="M"/>
    <connection from=":center_1" to="bottom-exit" fromLane="0" toLane="0" dir="s" state="M"/>
    <connection from=":center_2" to="right-exit" fromLane="0" toLane="0" via=":center_12_0" dir="l" state="m"/>
    <connection from=":center_12" to="right-exit" fromLane="0" toLane="0" dir="l" state="M"/>
    <connection from=":center_3" to="top-exit" fromLane="0" toLane="0" dir="r" state="M"/>
    <connection from=":center_4" to="closed-lane" fromLane="0" toLane="1" dir="s" state="M"/>
    <connection from=":center_5" to="bottom-exit" fromLane="0" toLane="0" via=":center_13_0" dir="l" state="m"/>
    <connection from=":center_13" to="bottom-exit" fromLane="0" toLane="0" dir="l" state="M"/>
    <connection from=":center_6" to="right-exit" fromLane="0" toLane="0" dir="r" state="M"/>
    <connection from=":center_7" to="top-exit" fromLane="0" toLane="0" dir="s" state="M"/>
    <connection from=":center_8" to="closed-lane" fromLane="0" toLane="1" via=":center_14_0" dir="l" state="m"/>
    <connection from=":center_14" to="closed-lane" fromLane="0" toLane="1" dir="l" state="M"/>
    <connection from=":center_9" to="bottom-exit" fromLane="0" toLane="0" dir="r" state="M"/>
    <connection from=":center_10" to="right-exit" fromLane="0" toLane="0" dir="s" state="M"/>
    <connection from=":center_11" to="top-exit" fromLane="0" toLane="0" via=":center_15_0" dir="l" state="m"/>
    <connection from=":center_15" to="top-exit" fromLane="0" toLane="0" dir="l" state="M"/>
    <connection from=":left-node_0" to="left-long-approaching" fromLane="0" toLane="2" dir="t" state="M"/>
    <connection from=":right-node_0" to="right-approaching" fromLane="0" toLane="2" dir="t" state="M"/>
    <connection from=":top-node_0" to="top-approaching" fromLane="0" toLane="2" dir="t" state="M"/>

</net>
