<routes >
    <vType id="car"
   			vClass="passenger" length="5" accel="3.5" decel="2.2" color="yellow"
   			sigma="1.0" maxSpeed="10"/>

    <vType id="ev"
      		vClass="emergency" length="7" accel="5.5" decel="2.2" sigma="1.0"
      		maxSpeed="20" guiShape="emergency" speedFactor="2.0"
      		minGapLat="0.2" emissionClass="HDV_6_1" />

    <vType id="HDV"
      		vClass="passenger" sigma="0.2" tau="0.8" length="7" decel="3.5" accel="2.0" color="red"  
      		emergencyDecel="9.0" lcAssertive="1.2" speedFactor="1.1"
            carFollowModel="Krauss" />

    <vehicles>
        <flow id="Car-Route-Left2Right-HDV" begin="0" end="200" from="left-approaching" 
        to="right-exit" probability="0.5" type="HDV">
            <param key="has.driverstate.device" value="true"/>

            <param key="has.toc.device" value="true"/>
            <param key="device.toc.automatedType" value="car" />
            <param key="device.toc.manualType" value="HDV"/>

            <param key="has.ssm.device" value="true"/>
            <param key="device.ssm.measures" value="TTC DRAC PET"/>
            <param key="device.ssm.thresholds" value="3.0 3.0 2.0"/> 
            <param key="device.ssm.range" value="50.0" />
            <param key="device.ssm.extratime" value="5.0" />
            <param key="device.ssm.file" value="SSM-Car-Route-Left2Right-HDV.xml" />
            <param key="device.ssm.trajectories" value="false" />
            <param key="device.ssm.geo" value="false" />
        </flow>

        <flow id="EV-Route-Left2Right" begin="0" end="200" from="left-approaching" 
        to="right-exit" probability="0.5" type="ev">
            <param key="has.driverstate.device" value="true"/>

            <param key="has.toc.device" value="true"/>
            <param key="device.toc.automatedType" value="ev" />
            <param key="device.toc.manualType" value="HDV"/>

            <param key="has.ssm.device" value="true"/>
            <param key="device.ssm.measures" value="TTC DRAC PET"/>
            <param key="device.ssm.thresholds" value="3.0 3.0 2.0"/> 
            <param key="device.ssm.range" value="50.0" />
            <param key="device.ssm.extratime" value="5.0" />
            <param key="device.ssm.file" value="SSM-EV-Route-Left2Right.xml" />
            <param key="device.ssm.trajectories" value="false" />
            <param key="device.ssm.geo" value="false" />

        </flow>

        <!-- <flow id="Car-Route-Left2Top" begin="0" end="1000" from="left-approaching" 
        to="top-exit" probability="0.5" color="1, 1, 0" type="HDV"/>
        <flow id="EV-Route-Left2Top" begin="0" end="1000" from="left-approaching" 
        to="top-exit" probability="0.5" color="1, 1, 0" type="ev"/>

        <flow id="Car-Route-Left2Bottom" begin="0" end="1000" from="left-approaching" 
        to="bottom-exit" probability="0.5" color="1, 1, 1" type="HDV"/>
        <flow id="EV-Route-Left2Bottom" begin="0" end="1000" from="left-approaching" 
        to="bottom-exit" probability="0.5" color="1, 1, 1" type="ev"/> -->

        <!-- <flow id="Route-Top2Left" begin="0" end="10000" from="top-approaching" to="left-exit" probability="0.5"/>
        <flow id="Route-Top2Bottom" begin="0" end="10000" from="top-approaching" to="bottom-exit" probability="0.5"/>
        <flow id="Route-Top2Right" begin="0" end="10000" from="top-approaching" to="right-exit" probability="0.5"/>

        <flow id="Route-Right2Top" begin="0" end="10000" from="right-approaching" to="top-exit" probability="0.5"/>
        <flow id="Route-Right2Left" begin="0" end="10000" from="right-approaching" to="left-exit" probability="0.5"/>
        <flow id="Route-Right2Bottom" begin="0" end="10000" from="right-approaching" to="bottom-exit" probability="0.5"/>

        <flow id="Route-Bottom2Right" begin="0" end="10000" from="bottom-approaching" to="right-exit" probability="0.5"/>
        <flow id="Route-Bottom2Top" begin="0" end="10000" from="bottom-approaching" to="top-exit" probability="0.5"/>
        <flow id="Route-Bottom2Left" begin="0" end="10000" from="bottom-approaching" to="left-exit" probability="0.5"/> -->
    </vehicles>

    
    <!-- </vehicle> -->
    <route id="route0" edges="top-approaching bottom-exit"/>
    <route id="route1" edges="top-approaching left-exit"/>

    <!-- <vehicle id="v0" route="route1" depart="0" type="car">
        <param key="has.driverstate.device" value="true"/>

        <param key="has.toc.device" value="true"/>
        <param key="device.toc.automatedType" value="car" />
        <param key="device.toc.manualType" value="ev"/>
        <param key="recoveryRate" value="100"/>
        <param key="responseTime" value="5"/>
    </vehicle> -->

    <!-- <vehicle id="v0" route="route0" depart="0" type="car">
        <param key="has.driverstate.device" value="true"/>

        <param key="has.toc.device" value="true"/>
        <param key="device.toc.automatedType" value="car" />
        <param key="device.toc.manualType" value="HDV"/>
        <param key="responseTime" value="1"/>

        <param key="has.ssm.device" value="true"/>
        <param key="device.ssm.measures" value="TTC DRAC PET"/>
        <param key="device.ssm.thresholds" value="3.0 3.0 2.0"/> 
        <param key="device.ssm.range" value="50.0" />
        <param key="device.ssm.extratime" value="5.0" />
        <param key="device.ssm.file" value="ssm_v0.xml" />
        <param key="device.ssm.trajectories" value="false" />
        <param key="device.ssm.geo" value="false" />
    </vehicle>

    <vehicle id="v1" route="route0" depart="10" type="HDV">
        <param key="has.ssm.device" value="true"/>
        <param key="has.driverstate.device" value="true"/>
    </vehicle>

    <vehicle id="v2" route="route0" depart="15" type="HDV">
        <param key="has.ssm.device" value="true"/>
        <param key="has.driverstate.device" value="true"/>
    </vehicle> -->

    

</routes>

