<additional>
  <tlLogic id="center" type="static" programID="my_program" offset="10">
   	<phase duration="12" state="GGGrrrrrrrrr"/>
	<phase duration="3" state="GGyrrrrrrrrr"/>
	<phase duration="8" state="GGrrrrGGsrrr"/>

	<phase duration="3" state="yyrrrrGGsrrr"/>
	<phase duration="12" state="rrrrrrGGGrrr"/>
	<phase duration="3" state="rrrrrryyyrrr"/> 

	<phase duration="12" state="rrrGGGrrrrrr"/>
	<phase duration="3" state="rrrGGyrrrrrr"/>
	<phase duration="8" state="rrrGGrrrrGGs"/>  
	
	<phase duration="3" state="rrryyrrrrGGs"/>
	<phase duration="12" state="rrrrrrrrrGGG"/>
	<phase duration="3" state="rrrrrrrrryyy"/>
	
	<phase duration="10" state="rrrrrrrrrrrr"/>
 </tlLogic>

</additional>