<additional>
  <tlLogic id="center" type="static" programID="my_program" offset="0">
   <phase duration="33" state="GGGrrrrrrrrr"/>
   <phase duration="6" state="yyyrrrrrrrrr"/>
	<phase duration="33" state="rrrGGGrrrrrr"/>
	<phase duration="6" state="rrryyyrrrrrr"/>
	<phase duration="33" state="rrrrrrGGGrrr"/>
	<phase duration="6" state="rrrrrryyyrrr"/>
	<phase duration="33" state="rrrrrrrrrGGG"/>
	<phase duration="6" state="rrrrrrrrryyy"/>
   
 </tlLogic>

</additional>