<additional>
  <tlLogic id="center" type="static" programID="my_program" offset="0">
   <phase duration="33" state="GGGrrrrrrrrr"/>
   <phase duration="6" state="yyyrrrrrrrrr"/>
	<phase duration="33" state="rrrGGGrrrrrr"/>
	<phase duration="6" state="rrryyyrrrrrr"/>
	<phase duration="33" state="rrrrrrGGGrrr"/>
	<phase duration="6" state="rrrrrryyyrrr"/>
	<phase duration="33" state="rrrrrrrrrGGG"/>
	<phase duration="6" state="rrrrrrrrryyy"/>
   
 </tlLogic>

 <e1Detector id="det_0" lane="top-approaching_1" pos="400" freq="10" file="det.out.xml"/>
 

</additional>