<?xml version="1.0" encoding="UTF-8"?>
<!-- generated on 2021-03-27 20:27:27.546299 by $Id$ v1_8_0+0044-4820708f3d
  options: -n Collision/CollisionIntersection.net.xml <doubleminus>fringe-factor 40 -r Collision/RealTMSPenetration3/Route-Files/L0-HDV-Route.rou.xml <doubleminus>trip-attributes=type="L0-HDV-" -b 120 -l <doubleminus>prefix L0-HDV- <doubleminus>seed 6 -p 8.4
-->
<routes xmlns:xsi="http://www.w3.org/2001/XMLSchema-instance" xsi:noNamespaceSchemaLocation="http://sumo.dlr.de/xsd/routes_file.xsd">
    <trip id="L0-HDV-0" depart="120.00" from="top-approaching" to="top-exit" type="L0-HDV-"/>
    <trip id="L0-HDV-1" depart="128.40" from="left-long-approaching" to="left-exit" type="L0-HDV-"/>
    <trip id="L0-HDV-2" depart="136.80" from="bottom-approaching" to="right-exit" type="L0-HDV-"/>
    <trip id="L0-HDV-3" depart="145.20" from="left-long-approaching" to="top-exit" type="L0-HDV-"/>
    <trip id="L0-HDV-4" depart="153.60" from="left-long-approaching" to="top-exit" type="L0-HDV-"/>
    <trip id="L0-HDV-5" depart="162.00" from="left-long-approaching" to="top-exit" type="L0-HDV-"/>
    <trip id="L0-HDV-6" depart="170.40" from="right-approaching" to="left-exit" type="L0-HDV-"/>
    <trip id="L0-HDV-7" depart="178.80" from="right-approaching" to="right-exit" type="L0-HDV-"/>
    <trip id="L0-HDV-8" depart="187.20" from="bottom-approaching" to="right-exit" type="L0-HDV-"/>
    <trip id="L0-HDV-9" depart="195.60" from="top-approaching" to="left-exit" type="L0-HDV-"/>
    <trip id="L0-HDV-10" depart="204.00" from="top-approaching" to="right-exit" type="L0-HDV-"/>
    <trip id="L0-HDV-11" depart="212.40" from="top-approaching" to="left-exit" type="L0-HDV-"/>
    <trip id="L0-HDV-12" depart="220.80" from="bottom-approaching" to="top-exit" type="L0-HDV-"/>
    <trip id="L0-HDV-13" depart="229.20" from="top-approaching" to="left-exit" type="L0-HDV-"/>
    <trip id="L0-HDV-14" depart="237.60" from="bottom-approaching" to="bottom-exit" type="L0-HDV-"/>
    <trip id="L0-HDV-15" depart="246.00" from="right-approaching" to="left-exit" type="L0-HDV-"/>
    <trip id="L0-HDV-16" depart="254.40" from="top-approaching" to="right-exit" type="L0-HDV-"/>
    <trip id="L0-HDV-17" depart="262.80" from="bottom-approaching" to="right-exit" type="L0-HDV-"/>
    <trip id="L0-HDV-18" depart="271.20" from="left-long-approaching" to="top-exit" type="L0-HDV-"/>
    <trip id="L0-HDV-19" depart="279.60" from="top-approaching" to="right-exit" type="L0-HDV-"/>
    <trip id="L0-HDV-20" depart="288.00" from="right-approaching" to="right-exit" type="L0-HDV-"/>
    <trip id="L0-HDV-21" depart="296.40" from="top-approaching" to="top-exit" type="L0-HDV-"/>
    <trip id="L0-HDV-22" depart="304.80" from="bottom-approaching" to="left-exit" type="L0-HDV-"/>
    <trip id="L0-HDV-23" depart="313.20" from="right-approaching" to="left-exit" type="L0-HDV-"/>
    <trip id="L0-HDV-24" depart="321.60" from="right-approaching" to="bottom-exit" type="L0-HDV-"/>
    <trip id="L0-HDV-25" depart="330.00" from="top-approaching" to="right-exit" type="L0-HDV-"/>
    <trip id="L0-HDV-26" depart="338.40" from="bottom-approaching" to="right-exit" type="L0-HDV-"/>
    <trip id="L0-HDV-27" depart="346.80" from="left-long-approaching" to="bottom-exit" type="L0-HDV-"/>
    <trip id="L0-HDV-28" depart="355.20" from="left-long-approaching" to="bottom-exit" type="L0-HDV-"/>
    <trip id="L0-HDV-29" depart="363.60" from="bottom-approaching" to="top-exit" type="L0-HDV-"/>
    <trip id="L0-HDV-30" depart="372.00" from="right-approaching" to="bottom-exit" type="L0-HDV-"/>
    <trip id="L0-HDV-31" depart="380.40" from="top-approaching" to="bottom-exit" type="L0-HDV-"/>
    <trip id="L0-HDV-32" depart="388.80" from="left-long-approaching" to="top-exit" type="L0-HDV-"/>
    <trip id="L0-HDV-33" depart="397.20" from="right-approaching" to="left-exit" type="L0-HDV-"/>
    <trip id="L0-HDV-34" depart="405.60" from="left-long-approaching" to="left-exit" type="L0-HDV-"/>
    <trip id="L0-HDV-35" depart="414.00" from="bottom-approaching" to="top-exit" type="L0-HDV-"/>
    <trip id="L0-HDV-36" depart="422.40" from="bottom-approaching" to="left-exit" type="L0-HDV-"/>
    <trip id="L0-HDV-37" depart="430.80" from="right-approaching" to="left-exit" type="L0-HDV-"/>
    <trip id="L0-HDV-38" depart="439.20" from="top-approaching" to="bottom-exit" type="L0-HDV-"/>
    <trip id="L0-HDV-39" depart="447.60" from="top-approaching" to="top-exit" type="L0-HDV-"/>
    <trip id="L0-HDV-40" depart="456.00" from="right-approaching" to="top-exit" type="L0-HDV-"/>
    <trip id="L0-HDV-41" depart="464.40" from="left-long-approaching" to="top-exit" type="L0-HDV-"/>
    <trip id="L0-HDV-42" depart="472.80" from="top-approaching" to="right-exit" type="L0-HDV-"/>
    <trip id="L0-HDV-43" depart="481.20" from="left-long-approaching" to="right-exit" type="L0-HDV-"/>
    <trip id="L0-HDV-44" depart="489.60" from="left-long-approaching" to="bottom-exit" type="L0-HDV-"/>
    <trip id="L0-HDV-45" depart="498.00" from="right-approaching" to="left-exit" type="L0-HDV-"/>
    <trip id="L0-HDV-46" depart="506.40" from="left-long-approaching" to="top-exit" type="L0-HDV-"/>
    <trip id="L0-HDV-47" depart="514.80" from="bottom-approaching" to="bottom-exit" type="L0-HDV-"/>
    <trip id="L0-HDV-48" depart="523.20" from="bottom-approaching" to="right-exit" type="L0-HDV-"/>
    <trip id="L0-HDV-49" depart="531.60" from="left-long-approaching" to="left-exit" type="L0-HDV-"/>
    <trip id="L0-HDV-50" depart="540.00" from="left-long-approaching" to="top-exit" type="L0-HDV-"/>
    <trip id="L0-HDV-51" depart="548.40" from="left-long-approaching" to="left-exit" type="L0-HDV-"/>
    <trip id="L0-HDV-52" depart="556.80" from="top-approaching" to="right-exit" type="L0-HDV-"/>
    <trip id="L0-HDV-53" depart="565.20" from="left-long-approaching" to="left-exit" type="L0-HDV-"/>
    <trip id="L0-HDV-54" depart="573.60" from="left-long-approaching" to="bottom-exit" type="L0-HDV-"/>
    <trip id="L0-HDV-55" depart="582.00" from="left-long-approaching" to="left-exit" type="L0-HDV-"/>
    <trip id="L0-HDV-56" depart="590.40" from="top-approaching" to="left-exit" type="L0-HDV-"/>
    <trip id="L0-HDV-57" depart="598.80" from="right-approaching" to="top-exit" type="L0-HDV-"/>
    <trip id="L0-HDV-58" depart="607.20" from="top-approaching" to="left-exit" type="L0-HDV-"/>
    <trip id="L0-HDV-59" depart="615.60" from="right-approaching" to="left-exit" type="L0-HDV-"/>
    <trip id="L0-HDV-60" depart="624.00" from="left-long-approaching" to="left-exit" type="L0-HDV-"/>
    <trip id="L0-HDV-61" depart="632.40" from="top-approaching" to="top-exit" type="L0-HDV-"/>
    <trip id="L0-HDV-62" depart="640.80" from="left-long-approaching" to="bottom-exit" type="L0-HDV-"/>
    <trip id="L0-HDV-63" depart="649.20" from="left-long-approaching" to="bottom-exit" type="L0-HDV-"/>
    <trip id="L0-HDV-64" depart="657.60" from="bottom-approaching" to="top-exit" type="L0-HDV-"/>
    <trip id="L0-HDV-65" depart="666.00" from="bottom-approaching" to="right-exit" type="L0-HDV-"/>
    <trip id="L0-HDV-66" depart="674.40" from="left-long-approaching" to="top-exit" type="L0-HDV-"/>
    <trip id="L0-HDV-67" depart="682.80" from="top-approaching" to="bottom-exit" type="L0-HDV-"/>
    <trip id="L0-HDV-68" depart="691.20" from="bottom-approaching" to="top-exit" type="L0-HDV-"/>
    <trip id="L0-HDV-69" depart="699.60" from="right-approaching" to="left-exit" type="L0-HDV-"/>
    <trip id="L0-HDV-70" depart="708.00" from="top-approaching" to="top-exit" type="L0-HDV-"/>
    <trip id="L0-HDV-71" depart="716.40" from="left-long-approaching" to="left-exit" type="L0-HDV-"/>
    <trip id="L0-HDV-72" depart="724.80" from="bottom-approaching" to="left-exit" type="L0-HDV-"/>
    <trip id="L0-HDV-73" depart="733.20" from="bottom-approaching" to="right-exit" type="L0-HDV-"/>
    <trip id="L0-HDV-74" depart="741.60" from="right-approaching" to="bottom-exit" type="L0-HDV-"/>
    <trip id="L0-HDV-75" depart="750.00" from="right-approaching" to="bottom-exit" type="L0-HDV-"/>
    <trip id="L0-HDV-76" depart="758.40" from="bottom-approaching" to="right-exit" type="L0-HDV-"/>
    <trip id="L0-HDV-77" depart="766.80" from="left-long-approaching" to="top-exit" type="L0-HDV-"/>
    <trip id="L0-HDV-78" depart="775.20" from="right-approaching" to="right-exit" type="L0-HDV-"/>
    <trip id="L0-HDV-79" depart="783.60" from="bottom-approaching" to="top-exit" type="L0-HDV-"/>
    <trip id="L0-HDV-80" depart="792.00" from="bottom-approaching" to="right-exit" type="L0-HDV-"/>
    <trip id="L0-HDV-81" depart="800.40" from="top-approaching" to="top-exit" type="L0-HDV-"/>
    <trip id="L0-HDV-82" depart="808.80" from="top-approaching" to="left-exit" type="L0-HDV-"/>
    <trip id="L0-HDV-83" depart="817.20" from="right-approaching" to="top-exit" type="L0-HDV-"/>
    <trip id="L0-HDV-84" depart="825.60" from="bottom-approaching" to="top-exit" type="L0-HDV-"/>
    <trip id="L0-HDV-85" depart="834.00" from="top-approaching" to="left-exit" type="L0-HDV-"/>
    <trip id="L0-HDV-86" depart="842.40" from="top-approaching" to="left-exit" type="L0-HDV-"/>
    <trip id="L0-HDV-87" depart="850.80" from="left-long-approaching" to="right-exit" type="L0-HDV-"/>
    <trip id="L0-HDV-88" depart="859.20" from="bottom-approaching" to="top-exit" type="L0-HDV-"/>
    <trip id="L0-HDV-89" depart="867.60" from="top-approaching" to="left-exit" type="L0-HDV-"/>
    <trip id="L0-HDV-90" depart="876.00" from="top-approaching" to="bottom-exit" type="L0-HDV-"/>
    <trip id="L0-HDV-91" depart="884.40" from="top-approaching" to="left-exit" type="L0-HDV-"/>
    <trip id="L0-HDV-92" depart="892.80" from="top-approaching" to="left-exit" type="L0-HDV-"/>
    <trip id="L0-HDV-93" depart="901.20" from="top-approaching" to="bottom-exit" type="L0-HDV-"/>
    <trip id="L0-HDV-94" depart="909.60" from="bottom-approaching" to="top-exit" type="L0-HDV-"/>
    <trip id="L0-HDV-95" depart="918.00" from="right-approaching" to="right-exit" type="L0-HDV-"/>
    <trip id="L0-HDV-96" depart="926.40" from="bottom-approaching" to="bottom-exit" type="L0-HDV-"/>
    <trip id="L0-HDV-97" depart="934.80" from="left-long-approaching" to="bottom-exit" type="L0-HDV-"/>
    <trip id="L0-HDV-98" depart="943.20" from="top-approaching" to="top-exit" type="L0-HDV-"/>
    <trip id="L0-HDV-99" depart="951.60" from="top-approaching" to="right-exit" type="L0-HDV-"/>
    <trip id="L0-HDV-100" depart="960.00" from="left-long-approaching" to="bottom-exit" type="L0-HDV-"/>
    <trip id="L0-HDV-101" depart="968.40" from="right-approaching" to="bottom-exit" type="L0-HDV-"/>
    <trip id="L0-HDV-102" depart="976.80" from="right-approaching" to="left-exit" type="L0-HDV-"/>
    <trip id="L0-HDV-103" depart="985.20" from="left-long-approaching" to="bottom-exit" type="L0-HDV-"/>
    <trip id="L0-HDV-104" depart="993.60" from="bottom-approaching" to="right-exit" type="L0-HDV-"/>
    <trip id="L0-HDV-105" depart="1002.00" from="bottom-approaching" to="right-exit" type="L0-HDV-"/>
    <trip id="L0-HDV-106" depart="1010.40" from="bottom-approaching" to="left-exit" type="L0-HDV-"/>
    <trip id="L0-HDV-107" depart="1018.80" from="bottom-approaching" to="right-exit" type="L0-HDV-"/>
    <trip id="L0-HDV-108" depart="1027.20" from="left-long-approaching" to="bottom-exit" type="L0-HDV-"/>
    <trip id="L0-HDV-109" depart="1035.60" from="bottom-approaching" to="right-exit" type="L0-HDV-"/>
    <trip id="L0-HDV-110" depart="1044.00" from="top-approaching" to="left-exit" type="L0-HDV-"/>
    <trip id="L0-HDV-111" depart="1052.40" from="bottom-approaching" to="left-exit" type="L0-HDV-"/>
    <trip id="L0-HDV-112" depart="1060.80" from="bottom-approaching" to="right-exit" type="L0-HDV-"/>
    <trip id="L0-HDV-113" depart="1069.20" from="top-approaching" to="right-exit" type="L0-HDV-"/>
    <trip id="L0-HDV-114" depart="1077.60" from="bottom-approaching" to="left-exit" type="L0-HDV-"/>
    <trip id="L0-HDV-115" depart="1086.00" from="left-long-approaching" to="left-exit" type="L0-HDV-"/>
    <trip id="L0-HDV-116" depart="1094.40" from="left-long-approaching" to="top-exit" type="L0-HDV-"/>
    <trip id="L0-HDV-117" depart="1102.80" from="right-approaching" to="right-exit" type="L0-HDV-"/>
    <trip id="L0-HDV-118" depart="1111.20" from="right-approaching" to="right-exit" type="L0-HDV-"/>
    <trip id="L0-HDV-119" depart="1119.60" from="top-approaching" to="left-exit" type="L0-HDV-"/>
    <trip id="L0-HDV-120" depart="1128.00" from="right-approaching" to="top-exit" type="L0-HDV-"/>
    <trip id="L0-HDV-121" depart="1136.40" from="bottom-approaching" to="right-exit" type="L0-HDV-"/>
    <trip id="L0-HDV-122" depart="1144.80" from="left-long-approaching" to="bottom-exit" type="L0-HDV-"/>
    <trip id="L0-HDV-123" depart="1153.20" from="bottom-approaching" to="top-exit" type="L0-HDV-"/>
    <trip id="L0-HDV-124" depart="1161.60" from="bottom-approaching" to="right-exit" type="L0-HDV-"/>
    <trip id="L0-HDV-125" depart="1170.00" from="bottom-approaching" to="left-exit" type="L0-HDV-"/>
    <trip id="L0-HDV-126" depart="1178.40" from="bottom-approaching" to="right-exit" type="L0-HDV-"/>
    <trip id="L0-HDV-127" depart="1186.80" from="top-approaching" to="bottom-exit" type="L0-HDV-"/>
    <trip id="L0-HDV-128" depart="1195.20" from="right-approaching" to="top-exit" type="L0-HDV-"/>
    <trip id="L0-HDV-129" depart="1203.60" from="left-long-approaching" to="left-exit" type="L0-HDV-"/>
    <trip id="L0-HDV-130" depart="1212.00" from="right-approaching" to="top-exit" type="L0-HDV-"/>
    <trip id="L0-HDV-131" depart="1220.40" from="bottom-approaching" to="right-exit" type="L0-HDV-"/>
    <trip id="L0-HDV-132" depart="1228.80" from="bottom-approaching" to="bottom-exit" type="L0-HDV-"/>
    <trip id="L0-HDV-133" depart="1237.20" from="top-approaching" to="bottom-exit" type="L0-HDV-"/>
    <trip id="L0-HDV-134" depart="1245.60" from="top-approaching" to="right-exit" type="L0-HDV-"/>
    <trip id="L0-HDV-135" depart="1254.00" from="right-approaching" to="right-exit" type="L0-HDV-"/>
    <trip id="L0-HDV-136" depart="1262.40" from="right-approaching" to="left-exit" type="L0-HDV-"/>
    <trip id="L0-HDV-137" depart="1270.80" from="left-long-approaching" to="bottom-exit" type="L0-HDV-"/>
    <trip id="L0-HDV-138" depart="1279.20" from="top-approaching" to="top-exit" type="L0-HDV-"/>
    <trip id="L0-HDV-139" depart="1287.60" from="top-approaching" to="bottom-exit" type="L0-HDV-"/>
    <trip id="L0-HDV-140" depart="1296.00" from="right-approaching" to="left-exit" type="L0-HDV-"/>
    <trip id="L0-HDV-141" depart="1304.40" from="top-approaching" to="right-exit" type="L0-HDV-"/>
    <trip id="L0-HDV-142" depart="1312.80" from="top-approaching" to="right-exit" type="L0-HDV-"/>
    <trip id="L0-HDV-143" depart="1321.20" from="right-approaching" to="top-exit" type="L0-HDV-"/>
    <trip id="L0-HDV-144" depart="1329.60" from="bottom-approaching" to="right-exit" type="L0-HDV-"/>
    <trip id="L0-HDV-145" depart="1338.00" from="bottom-approaching" to="left-exit" type="L0-HDV-"/>
    <trip id="L0-HDV-146" depart="1346.40" from="bottom-approaching" to="top-exit" type="L0-HDV-"/>
    <trip id="L0-HDV-147" depart="1354.80" from="bottom-approaching" to="top-exit" type="L0-HDV-"/>
    <trip id="L0-HDV-148" depart="1363.20" from="top-approaching" to="left-exit" type="L0-HDV-"/>
    <trip id="L0-HDV-149" depart="1371.60" from="top-approaching" to="bottom-exit" type="L0-HDV-"/>
    <trip id="L0-HDV-150" depart="1380.00" from="bottom-approaching" to="bottom-exit" type="L0-HDV-"/>
    <trip id="L0-HDV-151" depart="1388.40" from="bottom-approaching" to="bottom-exit" type="L0-HDV-"/>
    <trip id="L0-HDV-152" depart="1396.80" from="top-approaching" to="bottom-exit" type="L0-HDV-"/>
    <trip id="L0-HDV-153" depart="1405.20" from="right-approaching" to="left-exit" type="L0-HDV-"/>
    <trip id="L0-HDV-154" depart="1413.60" from="bottom-approaching" to="left-exit" type="L0-HDV-"/>
    <trip id="L0-HDV-155" depart="1422.00" from="bottom-approaching" to="top-exit" type="L0-HDV-"/>
    <trip id="L0-HDV-156" depart="1430.40" from="left-long-approaching" to="right-exit" type="L0-HDV-"/>
    <trip id="L0-HDV-157" depart="1438.80" from="right-approaching" to="right-exit" type="L0-HDV-"/>
    <trip id="L0-HDV-158" depart="1447.20" from="left-long-approaching" to="left-exit" type="L0-HDV-"/>
    <trip id="L0-HDV-159" depart="1455.60" from="bottom-approaching" to="top-exit" type="L0-HDV-"/>
    <trip id="L0-HDV-160" depart="1464.00" from="bottom-approaching" to="left-exit" type="L0-HDV-"/>
    <trip id="L0-HDV-161" depart="1472.40" from="top-approaching" to="right-exit" type="L0-HDV-"/>
    <trip id="L0-HDV-162" depart="1480.80" from="top-approaching" to="top-exit" type="L0-HDV-"/>
    <trip id="L0-HDV-163" depart="1489.20" from="right-approaching" to="bottom-exit" type="L0-HDV-"/>
    <trip id="L0-HDV-164" depart="1497.60" from="right-approaching" to="left-exit" type="L0-HDV-"/>
    <trip id="L0-HDV-165" depart="1506.00" from="top-approaching" to="right-exit" type="L0-HDV-"/>
    <trip id="L0-HDV-166" depart="1514.40" from="right-approaching" to="top-exit" type="L0-HDV-"/>
    <trip id="L0-HDV-167" depart="1522.80" from="left-long-approaching" to="top-exit" type="L0-HDV-"/>
    <trip id="L0-HDV-168" depart="1531.20" from="top-approaching" to="bottom-exit" type="L0-HDV-"/>
    <trip id="L0-HDV-169" depart="1539.60" from="top-approaching" to="top-exit" type="L0-HDV-"/>
    <trip id="L0-HDV-170" depart="1548.00" from="top-approaching" to="left-exit" type="L0-HDV-"/>
    <trip id="L0-HDV-171" depart="1556.40" from="left-exit-blockage" to="bottom-exit" type="L0-HDV-"/>
    <trip id="L0-HDV-172" depart="1564.80" from="left-long-approaching" to="top-exit" type="L0-HDV-"/>
    <trip id="L0-HDV-173" depart="1573.20" from="left-long-approaching" to="bottom-exit" type="L0-HDV-"/>
    <trip id="L0-HDV-174" depart="1581.60" from="left-long-approaching" to="bottom-exit" type="L0-HDV-"/>
    <trip id="L0-HDV-175" depart="1590.00" from="right-approaching" to="top-exit" type="L0-HDV-"/>
    <trip id="L0-HDV-176" depart="1598.40" from="top-approaching" to="bottom-exit" type="L0-HDV-"/>
    <trip id="L0-HDV-177" depart="1606.80" from="left-long-approaching" to="bottom-exit" type="L0-HDV-"/>
    <trip id="L0-HDV-178" depart="1615.20" from="top-approaching" to="top-exit" type="L0-HDV-"/>
    <trip id="L0-HDV-179" depart="1623.60" from="right-approaching" to="top-exit" type="L0-HDV-"/>
    <trip id="L0-HDV-180" depart="1632.00" from="right-approaching" to="top-exit" type="L0-HDV-"/>
    <trip id="L0-HDV-181" depart="1640.40" from="left-long-approaching" to="left-exit" type="L0-HDV-"/>
    <trip id="L0-HDV-182" depart="1648.80" from="top-approaching" to="top-exit" type="L0-HDV-"/>
    <trip id="L0-HDV-183" depart="1657.20" from="right-approaching" to="top-exit" type="L0-HDV-"/>
    <trip id="L0-HDV-184" depart="1665.60" from="right-approaching" to="top-exit" type="L0-HDV-"/>
    <trip id="L0-HDV-185" depart="1674.00" from="bottom-approaching" to="bottom-exit" type="L0-HDV-"/>
    <trip id="L0-HDV-186" depart="1682.40" from="bottom-approaching" to="right-exit" type="L0-HDV-"/>
    <trip id="L0-HDV-187" depart="1690.80" from="right-approaching" to="bottom-exit" type="L0-HDV-"/>
    <trip id="L0-HDV-188" depart="1699.20" from="left-short-approaching" to="bottom-exit" type="L0-HDV-"/>
    <trip id="L0-HDV-189" depart="1707.60" from="right-approaching" to="top-exit" type="L0-HDV-"/>
    <trip id="L0-HDV-190" depart="1716.00" from="bottom-approaching" to="top-exit" type="L0-HDV-"/>
    <trip id="L0-HDV-191" depart="1724.40" from="right-approaching" to="bottom-exit" type="L0-HDV-"/>
    <trip id="L0-HDV-192" depart="1732.80" from="left-long-approaching" to="bottom-exit" type="L0-HDV-"/>
    <trip id="L0-HDV-193" depart="1741.20" from="right-approaching" to="top-exit" type="L0-HDV-"/>
    <trip id="L0-HDV-194" depart="1749.60" from="bottom-approaching" to="bottom-exit" type="L0-HDV-"/>
    <trip id="L0-HDV-195" depart="1758.00" from="right-approaching" to="top-exit" type="L0-HDV-"/>
    <trip id="L0-HDV-196" depart="1766.40" from="right-approaching" to="left-exit" type="L0-HDV-"/>
    <trip id="L0-HDV-197" depart="1774.80" from="bottom-approaching" to="right-exit" type="L0-HDV-"/>
    <trip id="L0-HDV-198" depart="1783.20" from="left-long-approaching" to="top-exit" type="L0-HDV-"/>
    <trip id="L0-HDV-199" depart="1791.60" from="right-approaching" to="right-exit" type="L0-HDV-"/>
    <trip id="L0-HDV-200" depart="1800.00" from="top-approaching" to="right-exit" type="L0-HDV-"/>
    <trip id="L0-HDV-201" depart="1808.40" from="top-approaching" to="left-exit" type="L0-HDV-"/>
    <trip id="L0-HDV-202" depart="1816.80" from="bottom-approaching" to="top-exit" type="L0-HDV-"/>
    <trip id="L0-HDV-203" depart="1825.20" from="bottom-approaching" to="top-exit" type="L0-HDV-"/>
    <trip id="L0-HDV-204" depart="1833.60" from="left-long-approaching" to="bottom-exit" type="L0-HDV-"/>
    <trip id="L0-HDV-205" depart="1842.00" from="left-long-approaching" to="right-exit" type="L0-HDV-"/>
    <trip id="L0-HDV-206" depart="1850.40" from="left-long-approaching" to="right-exit" type="L0-HDV-"/>
    <trip id="L0-HDV-207" depart="1858.80" from="bottom-approaching" to="top-exit" type="L0-HDV-"/>
    <trip id="L0-HDV-208" depart="1867.20" from="left-long-approaching" to="top-exit" type="L0-HDV-"/>
    <trip id="L0-HDV-209" depart="1875.60" from="bottom-approaching" to="right-exit" type="L0-HDV-"/>
    <trip id="L0-HDV-210" depart="1884.00" from="left-long-approaching" to="left-exit" type="L0-HDV-"/>
    <trip id="L0-HDV-211" depart="1892.40" from="bottom-approaching" to="right-exit" type="L0-HDV-"/>
    <trip id="L0-HDV-212" depart="1900.80" from="top-approaching" to="bottom-exit" type="L0-HDV-"/>
    <trip id="L0-HDV-213" depart="1909.20" from="left-long-approaching" to="bottom-exit" type="L0-HDV-"/>
    <trip id="L0-HDV-214" depart="1917.60" from="top-approaching" to="top-exit" type="L0-HDV-"/>
    <trip id="L0-HDV-215" depart="1926.00" from="right-approaching" to="left-exit" type="L0-HDV-"/>
    <trip id="L0-HDV-216" depart="1934.40" from="bottom-approaching" to="bottom-exit" type="L0-HDV-"/>
    <trip id="L0-HDV-217" depart="1942.80" from="right-approaching" to="top-exit" type="L0-HDV-"/>
    <trip id="L0-HDV-218" depart="1951.20" from="top-approaching" to="top-exit" type="L0-HDV-"/>
    <trip id="L0-HDV-219" depart="1959.60" from="left-long-approaching" to="left-exit" type="L0-HDV-"/>
    <trip id="L0-HDV-220" depart="1968.00" from="right-approaching" to="left-exit" type="L0-HDV-"/>
    <trip id="L0-HDV-221" depart="1976.40" from="right-approaching" to="top-exit" type="L0-HDV-"/>
    <trip id="L0-HDV-222" depart="1984.80" from="left-long-approaching" to="top-exit" type="L0-HDV-"/>
    <trip id="L0-HDV-223" depart="1993.20" from="right-approaching" to="bottom-exit" type="L0-HDV-"/>
    <trip id="L0-HDV-224" depart="2001.60" from="right-approaching" to="right-exit" type="L0-HDV-"/>
    <trip id="L0-HDV-225" depart="2010.00" from="right-approaching" to="bottom-exit" type="L0-HDV-"/>
    <trip id="L0-HDV-226" depart="2018.40" from="top-approaching" to="left-exit-blockage" type="L0-HDV-"/>
    <trip id="L0-HDV-227" depart="2026.80" from="right-approaching" to="bottom-exit" type="L0-HDV-"/>
    <trip id="L0-HDV-228" depart="2035.20" from="bottom-approaching" to="bottom-exit" type="L0-HDV-"/>
    <trip id="L0-HDV-229" depart="2043.60" from="bottom-approaching" to="left-exit" type="L0-HDV-"/>
    <trip id="L0-HDV-230" depart="2052.00" from="bottom-approaching" to="bottom-exit" type="L0-HDV-"/>
    <trip id="L0-HDV-231" depart="2060.40" from="right-approaching" to="right-exit" type="L0-HDV-"/>
    <trip id="L0-HDV-232" depart="2068.80" from="top-approaching" to="bottom-exit" type="L0-HDV-"/>
    <trip id="L0-HDV-233" depart="2077.20" from="right-approaching" to="right-exit" type="L0-HDV-"/>
    <trip id="L0-HDV-234" depart="2085.60" from="bottom-approaching" to="top-exit" type="L0-HDV-"/>
    <trip id="L0-HDV-235" depart="2094.00" from="left-long-approaching" to="bottom-exit" type="L0-HDV-"/>
    <trip id="L0-HDV-236" depart="2102.40" from="bottom-approaching" to="top-exit" type="L0-HDV-"/>
    <trip id="L0-HDV-237" depart="2110.80" from="bottom-approaching" to="left-exit" type="L0-HDV-"/>
    <trip id="L0-HDV-238" depart="2119.20" from="right-approaching" to="left-exit" type="L0-HDV-"/>
    <trip id="L0-HDV-239" depart="2127.60" from="right-approaching" to="bottom-exit" type="L0-HDV-"/>
    <trip id="L0-HDV-240" depart="2136.00" from="left-long-approaching" to="right-exit" type="L0-HDV-"/>
    <trip id="L0-HDV-241" depart="2144.40" from="right-approaching" to="right-exit" type="L0-HDV-"/>
    <trip id="L0-HDV-242" depart="2152.80" from="left-long-approaching" to="right-exit" type="L0-HDV-"/>
    <trip id="L0-HDV-243" depart="2161.20" from="top-approaching" to="left-exit" type="L0-HDV-"/>
    <trip id="L0-HDV-244" depart="2169.60" from="right-approaching" to="top-exit" type="L0-HDV-"/>
    <trip id="L0-HDV-245" depart="2178.00" from="left-exit-blockage" to="left-exit" type="L0-HDV-"/>
    <trip id="L0-HDV-246" depart="2186.40" from="top-approaching" to="left-exit" type="L0-HDV-"/>
    <trip id="L0-HDV-247" depart="2194.80" from="left-long-approaching" to="left-exit" type="L0-HDV-"/>
    <trip id="L0-HDV-248" depart="2203.20" from="top-approaching" to="right-exit" type="L0-HDV-"/>
    <trip id="L0-HDV-249" depart="2211.60" from="top-approaching" to="bottom-exit" type="L0-HDV-"/>
    <trip id="L0-HDV-250" depart="2220.00" from="left-long-approaching" to="right-exit" type="L0-HDV-"/>
    <trip id="L0-HDV-251" depart="2228.40" from="left-long-approaching" to="right-exit" type="L0-HDV-"/>
    <trip id="L0-HDV-252" depart="2236.80" from="right-approaching" to="bottom-exit" type="L0-HDV-"/>
    <trip id="L0-HDV-253" depart="2245.20" from="bottom-approaching" to="left-exit" type="L0-HDV-"/>
    <trip id="L0-HDV-254" depart="2253.60" from="right-approaching" to="bottom-exit" type="L0-HDV-"/>
    <trip id="L0-HDV-255" depart="2262.00" from="left-long-approaching" to="bottom-exit" type="L0-HDV-"/>
    <trip id="L0-HDV-256" depart="2270.40" from="left-long-approaching" to="left-exit" type="L0-HDV-"/>
    <trip id="L0-HDV-257" depart="2278.80" from="left-long-approaching" to="right-exit" type="L0-HDV-"/>
    <trip id="L0-HDV-258" depart="2287.20" from="top-approaching" to="right-exit" type="L0-HDV-"/>
    <trip id="L0-HDV-259" depart="2295.60" from="right-approaching" to="left-exit" type="L0-HDV-"/>
    <trip id="L0-HDV-260" depart="2304.00" from="left-long-approaching" to="right-exit" type="L0-HDV-"/>
    <trip id="L0-HDV-261" depart="2312.40" from="top-approaching" to="bottom-exit" type="L0-HDV-"/>
    <trip id="L0-HDV-262" depart="2320.80" from="bottom-approaching" to="bottom-exit" type="L0-HDV-"/>
    <trip id="L0-HDV-263" depart="2329.20" from="right-approaching" to="top-exit" type="L0-HDV-"/>
    <trip id="L0-HDV-264" depart="2337.60" from="bottom-approaching" to="top-exit" type="L0-HDV-"/>
    <trip id="L0-HDV-265" depart="2346.00" from="right-approaching" to="top-exit" type="L0-HDV-"/>
    <trip id="L0-HDV-266" depart="2354.40" from="top-approaching" to="bottom-exit" type="L0-HDV-"/>
    <trip id="L0-HDV-267" depart="2362.80" from="top-approaching" to="bottom-exit" type="L0-HDV-"/>
    <trip id="L0-HDV-268" depart="2371.20" from="bottom-approaching" to="left-exit" type="L0-HDV-"/>
    <trip id="L0-HDV-269" depart="2379.60" from="left-long-approaching" to="bottom-exit" type="L0-HDV-"/>
    <trip id="L0-HDV-270" depart="2388.00" from="left-long-approaching" to="bottom-exit" type="L0-HDV-"/>
    <trip id="L0-HDV-271" depart="2396.40" from="bottom-approaching" to="bottom-exit" type="L0-HDV-"/>
    <trip id="L0-HDV-272" depart="2404.80" from="bottom-approaching" to="bottom-exit" type="L0-HDV-"/>
    <trip id="L0-HDV-273" depart="2413.20" from="left-long-approaching" to="left-exit" type="L0-HDV-"/>
    <trip id="L0-HDV-274" depart="2421.60" from="right-approaching" to="right-exit" type="L0-HDV-"/>
    <trip id="L0-HDV-275" depart="2430.00" from="left-long-approaching" to="left-exit" type="L0-HDV-"/>
    <trip id="L0-HDV-276" depart="2438.40" from="right-approaching" to="bottom-exit" type="L0-HDV-"/>
    <trip id="L0-HDV-277" depart="2446.80" from="bottom-approaching" to="bottom-exit" type="L0-HDV-"/>
    <trip id="L0-HDV-278" depart="2455.20" from="right-approaching" to="bottom-exit" type="L0-HDV-"/>
    <trip id="L0-HDV-279" depart="2463.60" from="bottom-approaching" to="left-exit" type="L0-HDV-"/>
    <trip id="L0-HDV-280" depart="2472.00" from="right-approaching" to="right-exit" type="L0-HDV-"/>
    <trip id="L0-HDV-281" depart="2480.40" from="right-approaching" to="right-exit" type="L0-HDV-"/>
    <trip id="L0-HDV-282" depart="2488.80" from="bottom-approaching" to="top-exit" type="L0-HDV-"/>
    <trip id="L0-HDV-283" depart="2497.20" from="right-approaching" to="left-exit" type="L0-HDV-"/>
    <trip id="L0-HDV-284" depart="2505.60" from="left-long-approaching" to="right-exit" type="L0-HDV-"/>
    <trip id="L0-HDV-285" depart="2514.00" from="bottom-approaching" to="right-exit" type="L0-HDV-"/>
    <trip id="L0-HDV-286" depart="2522.40" from="top-approaching" to="left-exit" type="L0-HDV-"/>
    <trip id="L0-HDV-287" depart="2530.80" from="left-long-approaching" to="left-exit" type="L0-HDV-"/>
    <trip id="L0-HDV-288" depart="2539.20" from="top-approaching" to="left-exit" type="L0-HDV-"/>
    <trip id="L0-HDV-289" depart="2547.60" from="left-long-approaching" to="right-exit" type="L0-HDV-"/>
    <trip id="L0-HDV-290" depart="2556.00" from="left-long-approaching" to="top-exit" type="L0-HDV-"/>
    <trip id="L0-HDV-291" depart="2564.40" from="left-long-approaching" to="right-exit" type="L0-HDV-"/>
    <trip id="L0-HDV-292" depart="2572.80" from="left-long-approaching" to="right-exit" type="L0-HDV-"/>