<?xml version="1.0" encoding="UTF-8"?>
<!-- generated on 2021-03-04 14:04:50.910409 by $Id$ v1_8_0+0044-4820708f3d
  options: -n Collision/CollisionIntersection.net.xml -r Collision/BaselineHDV/Route-Files/L0-HDV-Route.rou.xml <doubleminus>trip-attributes=type="L0-HDV" -b 120 -l <doubleminus>prefix L0-HDV- <doubleminus>seed 4 -p 1.86
-->
<routes xmlns:xsi="http://www.w3.org/2001/XMLSchema-instance" xsi:noNamespaceSchemaLocation="http://sumo.dlr.de/xsd/routes_file.xsd">
    <trip id="L0-HDV-0" depart="120.00" from="left-approaching" to="bottom-exit" type="L0-HDV"/>
    <trip id="L0-HDV-1" depart="121.86" from="left-approaching" to="bottom-exit" type="L0-HDV"/>
    <trip id="L0-HDV-2" depart="123.72" from="bottom-approaching" to="left-exit" type="L0-HDV"/>
    <trip id="L0-HDV-3" depart="125.58" from="top-approaching" to="top-exit" type="L0-HDV"/>
    <trip id="L0-HDV-4" depart="127.44" from="right-approaching" to="left-exit" type="L0-HDV"/>
    <trip id="L0-HDV-5" depart="129.30" from="left-approaching" to="left-exit" type="L0-HDV"/>
    <trip id="L0-HDV-6" depart="131.16" from="bottom-approaching" to="bottom-exit" type="L0-HDV"/>
    <trip id="L0-HDV-7" depart="133.02" from="left-approaching" to="top-exit" type="L0-HDV"/>
    <trip id="L0-HDV-8" depart="134.88" from="top-approaching" to="top-exit" type="L0-HDV"/>
    <trip id="L0-HDV-9" depart="136.74" from="top-approaching" to="bottom-exit" type="L0-HDV"/>
    <trip id="L0-HDV-10" depart="138.60" from="left-approaching" to="right-exit" type="L0-HDV"/>
    <trip id="L0-HDV-11" depart="140.46" from="right-approaching" to="top-exit" type="L0-HDV"/>
    <trip id="L0-HDV-12" depart="142.32" from="top-approaching" to="bottom-exit" type="L0-HDV"/>
    <trip id="L0-HDV-13" depart="144.18" from="right-approaching" to="right-exit" type="L0-HDV"/>
    <trip id="L0-HDV-14" depart="146.04" from="left-approaching" to="bottom-exit" type="L0-HDV"/>
    <trip id="L0-HDV-15" depart="147.90" from="left-approaching" to="bottom-exit" type="L0-HDV"/>
    <trip id="L0-HDV-16" depart="149.76" from="top-approaching" to="top-exit" type="L0-HDV"/>
    <trip id="L0-HDV-17" depart="151.62" from="left-approaching" to="left-exit" type="L0-HDV"/>
    <trip id="L0-HDV-18" depart="153.48" from="top-approaching" to="left-exit" type="L0-HDV"/>
    <trip id="L0-HDV-19" depart="155.34" from="top-approaching" to="top-exit" type="L0-HDV"/>
    <trip id="L0-HDV-20" depart="157.20" from="left-approaching" to="left-exit" type="L0-HDV"/>
    <trip id="L0-HDV-21" depart="159.06" from="right-approaching" to="left-exit" type="L0-HDV"/>
    <trip id="L0-HDV-22" depart="160.92" from="bottom-approaching" to="left-exit" type="L0-HDV"/>
    <trip id="L0-HDV-23" depart="162.78" from="top-approaching" to="bottom-exit" type="L0-HDV"/>
    <trip id="L0-HDV-24" depart="164.64" from="bottom-approaching" to="right-exit" type="L0-HDV"/>
    <trip id="L0-HDV-25" depart="166.50" from="left-approaching" to="left-exit" type="L0-HDV"/>
    <trip id="L0-HDV-26" depart="168.36" from="left-approaching" to="left-exit" type="L0-HDV"/>
    <trip id="L0-HDV-27" depart="170.22" from="top-approaching" to="bottom-exit" type="L0-HDV"/>
    <trip id="L0-HDV-28" depart="172.08" from="left-approaching" to="bottom-exit" type="L0-HDV"/>
    <trip id="L0-HDV-29" depart="173.94" from="right-approaching" to="left-exit" type="L0-HDV"/>
    <trip id="L0-HDV-30" depart="175.80" from="left-approaching" to="right-exit" type="L0-HDV"/>
    <trip id="L0-HDV-31" depart="177.66" from="left-approaching" to="left-exit" type="L0-HDV"/>
    <trip id="L0-HDV-32" depart="179.52" from="top-approaching" to="bottom-exit" type="L0-HDV"/>
    <trip id="L0-HDV-33" depart="181.38" from="bottom-approaching" to="left-exit" type="L0-HDV"/>
    <trip id="L0-HDV-34" depart="183.24" from="right-approaching" to="right-exit" type="L0-HDV"/>
    <trip id="L0-HDV-35" depart="185.10" from="left-approaching" to="left-exit" type="L0-HDV"/>
    <trip id="L0-HDV-36" depart="186.96" from="bottom-approaching" to="left-exit" type="L0-HDV"/>
    <trip id="L0-HDV-37" depart="188.82" from="bottom-approaching" to="right-exit" type="L0-HDV"/>
    <trip id="L0-HDV-38" depart="190.68" from="top-approaching" to="top-exit" type="L0-HDV"/>
    <trip id="L0-HDV-39" depart="192.54" from="right-approaching" to="top-exit" type="L0-HDV"/>
    <trip id="L0-HDV-40" depart="194.40" from="bottom-approaching" to="left-exit" type="L0-HDV"/>
    <trip id="L0-HDV-41" depart="196.26" from="top-approaching" to="right-exit" type="L0-HDV"/>
    <trip id="L0-HDV-42" depart="198.12" from="left-approaching" to="top-exit" type="L0-HDV"/>
    <trip id="L0-HDV-43" depart="199.98" from="right-approaching" to="top-exit" type="L0-HDV"/>
    <trip id="L0-HDV-44" depart="201.84" from="left-approaching" to="bottom-exit" type="L0-HDV"/>
    <trip id="L0-HDV-45" depart="203.70" from="left-approaching" to="bottom-exit" type="L0-HDV"/>
    <trip id="L0-HDV-46" depart="205.56" from="left-approaching" to="top-exit" type="L0-HDV"/>
    <trip id="L0-HDV-47" depart="207.42" from="left-approaching" to="bottom-exit" type="L0-HDV"/>
    <trip id="L0-HDV-48" depart="209.28" from="bottom-approaching" to="bottom-exit" type="L0-HDV"/>
    <trip id="L0-HDV-49" depart="211.14" from="right-approaching" to="left-exit" type="L0-HDV"/>
    <trip id="L0-HDV-50" depart="213.00" from="left-approaching" to="bottom-exit" type="L0-HDV"/>
    <trip id="L0-HDV-51" depart="214.86" from="top-approaching" to="left-exit" type="L0-HDV"/>
    <trip id="L0-HDV-52" depart="216.72" from="left-approaching" to="bottom-exit" type="L0-HDV"/>
    <trip id="L0-HDV-53" depart="218.58" from="bottom-approaching" to="bottom-exit" type="L0-HDV"/>
    <trip id="L0-HDV-54" depart="220.44" from="right-approaching" to="bottom-exit" type="L0-HDV"/>
    <trip id="L0-HDV-55" depart="222.30" from="bottom-approaching" to="left-exit" type="L0-HDV"/>
    <trip id="L0-HDV-56" depart="224.16" from="left-approaching" to="top-exit" type="L0-HDV"/>
    <trip id="L0-HDV-57" depart="226.02" from="bottom-approaching" to="left-exit" type="L0-HDV"/>
    <trip id="L0-HDV-58" depart="227.88" from="right-approaching" to="left-exit" type="L0-HDV"/>
    <trip id="L0-HDV-59" depart="229.74" from="top-approaching" to="left-exit" type="L0-HDV"/>
    <trip id="L0-HDV-60" depart="231.60" from="left-approaching" to="left-exit" type="L0-HDV"/>
    <trip id="L0-HDV-61" depart="233.46" from="bottom-approaching" to="left-exit" type="L0-HDV"/>
    <trip id="L0-HDV-62" depart="235.32" from="left-approaching" to="top-exit" type="L0-HDV"/>
    <trip id="L0-HDV-63" depart="237.18" from="top-approaching" to="left-exit" type="L0-HDV"/>
    <trip id="L0-HDV-64" depart="239.04" from="bottom-approaching" to="left-exit" type="L0-HDV"/>
    <trip id="L0-HDV-65" depart="240.90" from="left-approaching" to="left-exit" type="L0-HDV"/>
    <trip id="L0-HDV-66" depart="242.76" from="left-approaching" to="top-exit" type="L0-HDV"/>
    <trip id="L0-HDV-67" depart="244.62" from="bottom-approaching" to="bottom-exit" type="L0-HDV"/>
    <trip id="L0-HDV-68" depart="246.48" from="top-approaching" to="left-exit" type="L0-HDV"/>
    <trip id="L0-HDV-69" depart="248.34" from="top-approaching" to="left-exit" type="L0-HDV"/>
    <trip id="L0-HDV-70" depart="250.20" from="top-approaching" to="right-exit" type="L0-HDV"/>
    <trip id="L0-HDV-71" depart="252.06" from="right-approaching" to="right-exit" type="L0-HDV"/>
    <trip id="L0-HDV-72" depart="253.92" from="left-approaching" to="bottom-exit" type="L0-HDV"/>
    <trip id="L0-HDV-73" depart="255.78" from="left-approaching" to="top-exit" type="L0-HDV"/>
    <trip id="L0-HDV-74" depart="257.64" from="top-approaching" to="top-exit" type="L0-HDV"/>
    <trip id="L0-HDV-75" depart="259.50" from="left-approaching" to="right-exit" type="L0-HDV"/>
    <trip id="L0-HDV-76" depart="261.36" from="top-approaching" to="right-exit" type="L0-HDV"/>
    <trip id="L0-HDV-77" depart="263.22" from="top-approaching" to="left-exit" type="L0-HDV"/>
    <trip id="L0-HDV-78" depart="265.08" from="right-approaching" to="right-exit" type="L0-HDV"/>
    <trip id="L0-HDV-79" depart="266.94" from="left-approaching" to="top-exit" type="L0-HDV"/>
    <trip id="L0-HDV-80" depart="268.80" from="top-approaching" to="bottom-exit" type="L0-HDV"/>
    <trip id="L0-HDV-81" depart="270.66" from="top-approaching" to="top-exit" type="L0-HDV"/>
    <trip id="L0-HDV-82" depart="272.52" from="right-approaching" to="bottom-exit" type="L0-HDV"/>
    <trip id="L0-HDV-83" depart="274.38" from="top-approaching" to="bottom-exit" type="L0-HDV"/>
    <trip id="L0-HDV-84" depart="276.24" from="top-approaching" to="right-exit" type="L0-HDV"/>
    <trip id="L0-HDV-85" depart="278.10" from="bottom-approaching" to="bottom-exit" type="L0-HDV"/>
    <trip id="L0-HDV-86" depart="279.96" from="right-approaching" to="left-exit" type="L0-HDV"/>
    <trip id="L0-HDV-87" depart="281.82" from="right-approaching" to="top-exit" type="L0-HDV"/>
    <trip id="L0-HDV-88" depart="283.68" from="left-approaching" to="bottom-exit" type="L0-HDV"/>
    <trip id="L0-HDV-89" depart="285.54" from="top-approaching" to="bottom-exit" type="L0-HDV"/>
    <trip id="L0-HDV-90" depart="287.40" from="top-approaching" to="bottom-exit" type="L0-HDV"/>
    <trip id="L0-HDV-91" depart="289.26" from="top-approaching" to="right-exit" type="L0-HDV"/>
    <trip id="L0-HDV-92" depart="291.12" from="top-approaching" to="left-exit" type="L0-HDV"/>
    <trip id="L0-HDV-93" depart="292.98" from="top-approaching" to="bottom-exit" type="L0-HDV"/>
    <trip id="L0-HDV-94" depart="294.84" from="right-approaching" to="left-exit" type="L0-HDV"/>
    <trip id="L0-HDV-95" depart="296.70" from="top-approaching" to="right-exit" type="L0-HDV"/>
    <trip id="L0-HDV-96" depart="298.56" from="left-approaching" to="left-exit" type="L0-HDV"/>
    <trip id="L0-HDV-97" depart="300.42" from="bottom-approaching" to="bottom-exit" type="L0-HDV"/>
    <trip id="L0-HDV-98" depart="302.28" from="right-approaching" to="left-exit" type="L0-HDV"/>
    <trip id="L0-HDV-99" depart="304.14" from="top-approaching" to="right-exit" type="L0-HDV"/>
    <trip id="L0-HDV-100" depart="306.00" from="bottom-approaching" to="left-exit" type="L0-HDV"/>
    <trip id="L0-HDV-101" depart="307.86" from="right-approaching" to="left-exit" type="L0-HDV"/>
    <trip id="L0-HDV-102" depart="309.72" from="bottom-approaching" to="top-exit" type="L0-HDV"/>
    <trip id="L0-HDV-103" depart="311.58" from="top-approaching" to="bottom-exit" type="L0-HDV"/>
    <trip id="L0-HDV-104" depart="313.44" from="left-approaching" to="left-exit" type="L0-HDV"/>
    <trip id="L0-HDV-105" depart="315.30" from="right-approaching" to="left-exit" type="L0-HDV"/>
    <trip id="L0-HDV-106" depart="317.16" from="left-approaching" to="left-exit" type="L0-HDV"/>
    <trip id="L0-HDV-107" depart="319.02" from="top-approaching" to="bottom-exit" type="L0-HDV"/>
    <trip id="L0-HDV-108" depart="320.88" from="bottom-approaching" to="right-exit" type="L0-HDV"/>
    <trip id="L0-HDV-109" depart="322.74" from="top-approaching" to="left-exit" type="L0-HDV"/>
    <trip id="L0-HDV-110" depart="324.60" from="left-approaching" to="top-exit" type="L0-HDV"/>
    <trip id="L0-HDV-111" depart="326.46" from="right-approaching" to="bottom-exit" type="L0-HDV"/>
    <trip id="L0-HDV-112" depart="328.32" from="top-approaching" to="bottom-exit" type="L0-HDV"/>
    <trip id="L0-HDV-113" depart="330.18" from="left-approaching" to="top-exit" type="L0-HDV"/>
    <trip id="L0-HDV-114" depart="332.04" from="left-approaching" to="top-exit" type="L0-HDV"/>
    <trip id="L0-HDV-115" depart="333.90" from="bottom-approaching" to="top-exit" type="L0-HDV"/>
    <trip id="L0-HDV-116" depart="335.76" from="bottom-approaching" to="bottom-exit" type="L0-HDV"/>
    <trip id="L0-HDV-117" depart="337.62" from="left-approaching" to="left-exit" type="L0-HDV"/>
    <trip id="L0-HDV-118" depart="339.48" from="left-approaching" to="top-exit" type="L0-HDV"/>
    <trip id="L0-HDV-119" depart="341.34" from="right-approaching" to="bottom-exit" type="L0-HDV"/>
    <trip id="L0-HDV-120" depart="343.20" from="left-approaching" to="left-exit" type="L0-HDV"/>
    <trip id="L0-HDV-121" depart="345.06" from="left-approaching" to="right-exit" type="L0-HDV"/>
    <trip id="L0-HDV-122" depart="346.92" from="left-approaching" to="bottom-exit" type="L0-HDV"/>
    <trip id="L0-HDV-123" depart="348.78" from="left-approaching" to="top-exit" type="L0-HDV"/>
    <trip id="L0-HDV-124" depart="350.64" from="left-approaching" to="right-exit" type="L0-HDV"/>
    <trip id="L0-HDV-125" depart="352.50" from="top-approaching" to="right-exit" type="L0-HDV"/>
    <trip id="L0-HDV-126" depart="354.36" from="right-approaching" to="right-exit" type="L0-HDV"/>
    <trip id="L0-HDV-127" depart="356.22" from="left-approaching" to="top-exit" type="L0-HDV"/>
    <trip id="L0-HDV-128" depart="358.08" from="left-approaching" to="top-exit" type="L0-HDV"/>
    <trip id="L0-HDV-129" depart="359.94" from="left-approaching" to="top-exit" type="L0-HDV"/>
    <trip id="L0-HDV-130" depart="361.80" from="right-approaching" to="right-exit" type="L0-HDV"/>
    <trip id="L0-HDV-131" depart="363.66" from="left-approaching" to="bottom-exit" type="L0-HDV"/>
    <trip id="L0-HDV-132" depart="365.52" from="right-approaching" to="left-exit" type="L0-HDV"/>
    <trip id="L0-HDV-133" depart="367.38" from="right-approaching" to="bottom-exit" type="L0-HDV"/>
    <trip id="L0-HDV-134" depart="369.24" from="bottom-approaching" to="bottom-exit" type="L0-HDV"/>
    <trip id="L0-HDV-135" depart="371.10" from="top-approaching" to="bottom-exit" type="L0-HDV"/>
    <trip id="L0-HDV-136" depart="372.96" from="top-approaching" to="left-exit" type="L0-HDV"/>
    <trip id="L0-HDV-137" depart="374.82" from="left-approaching" to="left-exit" type="L0-HDV"/>
    <trip id="L0-HDV-138" depart="376.68" from="right-approaching" to="bottom-exit" type="L0-HDV"/>
    <trip id="L0-HDV-139" depart="378.54" from="left-approaching" to="top-exit" type="L0-HDV"/>
    <trip id="L0-HDV-140" depart="380.40" from="bottom-approaching" to="right-exit" type="L0-HDV"/>
    <trip id="L0-HDV-141" depart="382.26" from="left-approaching" to="left-exit" type="L0-HDV"/>
    <trip id="L0-HDV-142" depart="384.12" from="bottom-approaching" to="bottom-exit" type="L0-HDV"/>
    <trip id="L0-HDV-143" depart="385.98" from="top-approaching" to="top-exit" type="L0-HDV"/>
    <trip id="L0-HDV-144" depart="387.84" from="top-approaching" to="top-exit" type="L0-HDV"/>
    <trip id="L0-HDV-145" depart="389.70" from="top-approaching" to="bottom-exit" type="L0-HDV"/>
    <trip id="L0-HDV-146" depart="391.56" from="left-approaching" to="left-exit" type="L0-HDV"/>
    <trip id="L0-HDV-147" depart="393.42" from="left-approaching" to="top-exit" type="L0-HDV"/>
    <trip id="L0-HDV-148" depart="395.28" from="right-approaching" to="top-exit" type="L0-HDV"/>
    <trip id="L0-HDV-149" depart="397.14" from="bottom-approaching" to="right-exit" type="L0-HDV"/>
    <trip id="L0-HDV-150" depart="399.00" from="right-approaching" to="right-exit" type="L0-HDV"/>
    <trip id="L0-HDV-151" depart="400.86" from="right-approaching" to="top-exit" type="L0-HDV"/>
    <trip id="L0-HDV-152" depart="402.72" from="left-approaching" to="top-exit" type="L0-HDV"/>
    <trip id="L0-HDV-153" depart="404.58" from="left-approaching" to="right-exit" type="L0-HDV"/>
    <trip id="L0-HDV-154" depart="406.44" from="top-approaching" to="right-exit" type="L0-HDV"/>
    <trip id="L0-HDV-155" depart="408.30" from="left-approaching" to="left-exit" type="L0-HDV"/>
    <trip id="L0-HDV-156" depart="410.16" from="left-approaching" to="right-exit" type="L0-HDV"/>
    <trip id="L0-HDV-157" depart="412.02" from="top-approaching" to="top-exit" type="L0-HDV"/>
    <trip id="L0-HDV-158" depart="413.88" from="left-approaching" to="left-exit" type="L0-HDV"/>
    <trip id="L0-HDV-159" depart="415.74" from="top-approaching" to="left-exit" type="L0-HDV"/>
    <trip id="L0-HDV-160" depart="417.60" from="left-approaching" to="bottom-exit" type="L0-HDV"/>
    <trip id="L0-HDV-161" depart="419.46" from="bottom-approaching" to="left-exit" type="L0-HDV"/>
    <trip id="L0-HDV-162" depart="421.32" from="right-approaching" to="right-exit" type="L0-HDV"/>
    <trip id="L0-HDV-163" depart="423.18" from="left-approaching" to="top-exit" type="L0-HDV"/>
    <trip id="L0-HDV-164" depart="425.04" from="right-approaching" to="bottom-exit" type="L0-HDV"/>
    <trip id="L0-HDV-165" depart="426.90" from="bottom-approaching" to="top-exit" type="L0-HDV"/>
    <trip id="L0-HDV-166" depart="428.76" from="top-approaching" to="top-exit" type="L0-HDV"/>
    <trip id="L0-HDV-167" depart="430.62" from="right-approaching" to="left-exit" type="L0-HDV"/>
    <trip id="L0-HDV-168" depart="432.48" from="bottom-approaching" to="left-exit" type="L0-HDV"/>
    <trip id="L0-HDV-169" depart="434.34" from="left-approaching" to="top-exit" type="L0-HDV"/>
    <trip id="L0-HDV-170" depart="436.20" from="top-approaching" to="right-exit" type="L0-HDV"/>
    <trip id="L0-HDV-171" depart="438.06" from="bottom-approaching" to="left-exit" type="L0-HDV"/>
    <trip id="L0-HDV-172" depart="439.92" from="left-approaching" to="top-exit" type="L0-HDV"/>
    <trip id="L0-HDV-173" depart="441.78" from="bottom-approaching" to="right-exit" type="L0-HDV"/>
    <trip id="L0-HDV-174" depart="443.64" from="right-approaching" to="left-exit" type="L0-HDV"/>
    <trip id="L0-HDV-175" depart="445.50" from="top-approaching" to="left-exit" type="L0-HDV"/>
    <trip id="L0-HDV-176" depart="447.36" from="left-approaching" to="bottom-exit" type="L0-HDV"/>
    <trip id="L0-HDV-177" depart="449.22" from="bottom-approaching" to="bottom-exit" type="L0-HDV"/>
    <trip id="L0-HDV-178" depart="451.08" from="left-approaching" to="bottom-exit" type="L0-HDV"/>
    <trip id="L0-HDV-179" depart="452.94" from="bottom-approaching" to="top-exit" type="L0-HDV"/>
    <trip id="L0-HDV-180" depart="454.80" from="left-approaching" to="top-exit" type="L0-HDV"/>
    <trip id="L0-HDV-181" depart="456.66" from="right-approaching" to="right-exit" type="L0-HDV"/>
    <trip id="L0-HDV-182" depart="458.52" from="right-approaching" to="top-exit" type="L0-HDV"/>
    <trip id="L0-HDV-183" depart="460.38" from="top-approaching" to="right-exit" type="L0-HDV"/>
    <trip id="L0-HDV-184" depart="462.24" from="left-approaching" to="right-exit" type="L0-HDV"/>
    <trip id="L0-HDV-185" depart="464.10" from="right-approaching" to="left-exit" type="L0-HDV"/>
    <trip id="L0-HDV-186" depart="465.96" from="left-approaching" to="bottom-exit" type="L0-HDV"/>
    <trip id="L0-HDV-187" depart="467.82" from="top-approaching" to="left-exit" type="L0-HDV"/>
    <trip id="L0-HDV-188" depart="469.68" from="bottom-approaching" to="bottom-exit" type="L0-HDV"/>
    <trip id="L0-HDV-189" depart="471.54" from="top-approaching" to="left-exit" type="L0-HDV"/>
    <trip id="L0-HDV-190" depart="473.40" from="left-approaching" to="right-exit" type="L0-HDV"/>
    <trip id="L0-HDV-191" depart="475.26" from="top-approaching" to="left-exit" type="L0-HDV"/>
    <trip id="L0-HDV-192" depart="477.12" from="left-approaching" to="left-exit" type="L0-HDV"/>
    <trip id="L0-HDV-193" depart="478.98" from="bottom-approaching" to="top-exit" type="L0-HDV"/>
    <trip id="L0-HDV-194" depart="480.84" from="bottom-approaching" to="top-exit" type="L0-HDV"/>
    <trip id="L0-HDV-195" depart="482.70" from="bottom-approaching" to="bottom-exit" type="L0-HDV"/>
    <trip id="L0-HDV-196" depart="484.56" from="top-approaching" to="top-exit" type="L0-HDV"/>
    <trip id="L0-HDV-197" depart="486.42" from="left-approaching" to="left-exit" type="L0-HDV"/>
    <trip id="L0-HDV-198" depart="488.28" from="left-approaching" to="right-exit" type="L0-HDV"/>
    <trip id="L0-HDV-199" depart="490.14" from="bottom-approaching" to="top-exit" type="L0-HDV"/>
    <trip id="L0-HDV-200" depart="492.00" from="top-approaching" to="right-exit" type="L0-HDV"/>
    <trip id="L0-HDV-201" depart="493.86" from="top-approaching" to="top-exit" type="L0-HDV"/>
    <trip id="L0-HDV-202" depart="495.72" from="left-approaching" to="top-exit" type="L0-HDV"/>
    <trip id="L0-HDV-203" depart="497.58" from="top-approaching" to="right-exit" type="L0-HDV"/>
    <trip id="L0-HDV-204" depart="499.44" from="bottom-approaching" to="right-exit" type="L0-HDV"/>
    <trip id="L0-HDV-205" depart="501.30" from="top-approaching" to="left-exit" type="L0-HDV"/>
    <trip id="L0-HDV-206" depart="503.16" from="right-approaching" to="top-exit" type="L0-HDV"/>
    <trip id="L0-HDV-207" depart="505.02" from="right-approaching" to="bottom-exit" type="L0-HDV"/>
    <trip id="L0-HDV-208" depart="506.88" from="right-approaching" to="left-exit" type="L0-HDV"/>
    <trip id="L0-HDV-209" depart="508.74" from="top-approaching" to="right-exit" type="L0-HDV"/>
    <trip id="L0-HDV-210" depart="510.60" from="left-approaching" to="top-exit" type="L0-HDV"/>
    <trip id="L0-HDV-211" depart="512.46" from="right-approaching" to="left-exit" type="L0-HDV"/>
    <trip id="L0-HDV-212" depart="514.32" from="top-approaching" to="top-exit" type="L0-HDV"/>
    <trip id="L0-HDV-213" depart="516.18" from="top-approaching" to="top-exit" type="L0-HDV"/>
    <trip id="L0-HDV-214" depart="518.04" from="right-approaching" to="right-exit" type="L0-HDV"/>
    <trip id="L0-HDV-215" depart="519.90" from="right-approaching" to="left-exit" type="L0-HDV"/>
    <trip id="L0-HDV-216" depart="521.76" from="top-approaching" to="left-exit" type="L0-HDV"/>
    <trip id="L0-HDV-217" depart="523.62" from="bottom-approaching" to="right-exit" type="L0-HDV"/>
    <trip id="L0-HDV-218" depart="525.48" from="left-approaching" to="left-exit" type="L0-HDV"/>
    <trip id="L0-HDV-219" depart="527.34" from="right-approaching" to="left-exit" type="L0-HDV"/>
    <trip id="L0-HDV-220" depart="529.20" from="bottom-approaching" to="bottom-exit" type="L0-HDV"/>
    <trip id="L0-HDV-221" depart="531.06" from="right-approaching" to="top-exit" type="L0-HDV"/>
    <trip id="L0-HDV-222" depart="532.92" from="right-approaching" to="bottom-exit" type="L0-HDV"/>
    <trip id="L0-HDV-223" depart="534.78" from="top-approaching" to="top-exit" type="L0-HDV"/>
    <trip id="L0-HDV-224" depart="536.64" from="left-approaching" to="bottom-exit" type="L0-HDV"/>
    <trip id="L0-HDV-225" depart="538.50" from="top-approaching" to="right-exit" type="L0-HDV"/>
    <trip id="L0-HDV-226" depart="540.36" from="right-approaching" to="bottom-exit" type="L0-HDV"/>
    <trip id="L0-HDV-227" depart="542.22" from="right-approaching" to="bottom-exit" type="L0-HDV"/>
    <trip id="L0-HDV-228" depart="544.08" from="left-approaching" to="bottom-exit" type="L0-HDV"/>
    <trip id="L0-HDV-229" depart="545.94" from="left-approaching" to="top-exit" type="L0-HDV"/>
    <trip id="L0-HDV-230" depart="547.80" from="right-approaching" to="top-exit" type="L0-HDV"/>
    <trip id="L0-HDV-231" depart="549.66" from="left-approaching" to="left-exit" type="L0-HDV"/>
    <trip id="L0-HDV-232" depart="551.52" from="right-approaching" to="bottom-exit" type="L0-HDV"/>
    <trip id="L0-HDV-233" depart="553.38" from="left-approaching" to="top-exit" type="L0-HDV"/>
    <trip id="L0-HDV-234" depart="555.24" from="right-approaching" to="top-exit" type="L0-HDV"/>
    <trip id="L0-HDV-235" depart="557.10" from="left-approaching" to="right-exit" type="L0-HDV"/>
    <trip id="L0-HDV-236" depart="558.96" from="right-approaching" to="right-exit" type="L0-HDV"/>
    <trip id="L0-HDV-237" depart="560.82" from="left-approaching" to="bottom-exit" type="L0-HDV"/>
    <trip id="L0-HDV-238" depart="562.68" from="bottom-approaching" to="top-exit" type="L0-HDV"/>
    <trip id="L0-HDV-239" depart="564.54" from="top-approaching" to="left-exit" type="L0-HDV"/>
    <trip id="L0-HDV-240" depart="566.40" from="right-approaching" to="left-exit" type="L0-HDV"/>
    <trip id="L0-HDV-241" depart="568.26" from="right-approaching" to="top-exit" type="L0-HDV"/>
    <trip id="L0-HDV-242" depart="570.12" from="left-approaching" to="right-exit" type="L0-HDV"/>
    <trip id="L0-HDV-243" depart="571.98" from="left-approaching" to="left-exit" type="L0-HDV"/>
    <trip id="L0-HDV-244" depart="573.84" from="bottom-approaching" to="left-exit" type="L0-HDV"/>
    <trip id="L0-HDV-245" depart="575.70" from="left-approaching" to="top-exit" type="L0-HDV"/>
    <trip id="L0-HDV-246" depart="577.56" from="bottom-approaching" to="right-exit" type="L0-HDV"/>
    <trip id="L0-HDV-247" depart="579.42" from="bottom-approaching" to="top-exit" type="L0-HDV"/>
    <trip id="L0-HDV-248" depart="581.28" from="bottom-approaching" to="bottom-exit" type="L0-HDV"/>
    <trip id="L0-HDV-249" depart="583.14" from="left-approaching" to="top-exit" type="L0-HDV"/>
    <trip id="L0-HDV-250" depart="585.00" from="right-approaching" to="top-exit" type="L0-HDV"/>
    <trip id="L0-HDV-251" depart="586.86" from="left-approaching" to="bottom-exit" type="L0-HDV"/>
    <trip id="L0-HDV-252" depart="588.72" from="left-approaching" to="left-exit" type="L0-HDV"/>
    <trip id="L0-HDV-253" depart="590.58" from="top-approaching" to="bottom-exit" type="L0-HDV"/>
    <trip id="L0-HDV-254" depart="592.44" from="left-approaching" to="top-exit" type="L0-HDV"/>
    <trip id="L0-HDV-255" depart="594.30" from="bottom-approaching" to="top-exit" type="L0-HDV"/>
    <trip id="L0-HDV-256" depart="596.16" from="left-approaching" to="left-exit" type="L0-HDV"/>
    <trip id="L0-HDV-257" depart="598.02" from="right-approaching" to="top-exit" type="L0-HDV"/>
    <trip id="L0-HDV-258" depart="599.88" from="bottom-approaching" to="top-exit" type="L0-HDV"/>
    <trip id="L0-HDV-259" depart="601.74" from="bottom-approaching" to="right-exit" type="L0-HDV"/>
    <trip id="L0-HDV-260" depart="603.60" from="bottom-approaching" to="right-exit" type="L0-HDV"/>
    <trip id="L0-HDV-261" depart="605.46" from="bottom-approaching" to="bottom-exit" type="L0-HDV"/>
    <trip id="L0-HDV-262" depart="607.32" from="bottom-approaching" to="left-exit" type="L0-HDV"/>
    <trip id="L0-HDV-263" depart="609.18" from="left-approaching" to="top-exit" type="L0-HDV"/>
    <trip id="L0-HDV-264" depart="611.04" from="right-approaching" to="left-exit" type="L0-HDV"/>
    <trip id="L0-HDV-265" depart="612.90" from="top-approaching" to="bottom-exit" type="L0-HDV"/>
    <trip id="L0-HDV-266" depart="614.76" from="left-approaching" to="top-exit" type="L0-HDV"/>
    <trip id="L0-HDV-267" depart="616.62" from="top-approaching" to="right-exit" type="L0-HDV"/>
    <trip id="L0-HDV-268" depart="618.48" from="top-approaching" to="bottom-exit" type="L0-HDV"/>
    <trip id="L0-HDV-269" depart="620.34" from="top-approaching" to="right-exit" type="L0-HDV"/>
    <trip id="L0-HDV-270" depart="622.20" from="right-approaching" to="top-exit" type="L0-HDV"/>
    <trip id="L0-HDV-271" depart="624.06" from="bottom-approaching" to="bottom-exit" type="L0-HDV"/>
    <trip id="L0-HDV-272" depart="625.92" from="bottom-approaching" to="left-exit" type="L0-HDV"/>
    <trip id="L0-HDV-273" depart="627.78" from="left-approaching" to="left-exit" type="L0-HDV"/>
    <trip id="L0-HDV-274" depart="629.64" from="left-approaching" to="right-exit" type="L0-HDV"/>
    <trip id="L0-HDV-275" depart="631.50" from="top-approaching" to="right-exit" type="L0-HDV"/>
    <trip id="L0-HDV-276" depart="633.36" from="bottom-approaching" to="bottom-exit" type="L0-HDV"/>
    <trip id="L0-HDV-277" depart="635.22" from="left-approaching" to="left-exit" type="L0-HDV"/>
    <trip id="L0-HDV-278" depart="637.08" from="left-approaching" to="bottom-exit" type="L0-HDV"/>
    <trip id="L0-HDV-279" depart="638.94" from="right-approaching" to="left-exit" type="L0-HDV"/>
    <trip id="L0-HDV-280" depart="640.80" from="left-approaching" to="right-exit" type="L0-HDV"/>
    <trip id="L0-HDV-281" depart="642.66" from="top-approaching" to="bottom-exit" type="L0-HDV"/>
    <trip id="L0-HDV-282" depart="644.52" from="left-approaching" to="top-exit" type="L0-HDV"/>
    <trip id="L0-HDV-283" depart="646.38" from="left-approaching" to="bottom-exit" type="L0-HDV"/>
    <trip id="L0-HDV-284" depart="648.24" from="bottom-approaching" to="top-exit" type="L0-HDV"/>
    <trip id="L0-HDV-285" depart="650.10" from="right-approaching" to="top-exit" type="L0-HDV"/>
    <trip id="L0-HDV-286" depart="651.96" from="left-approaching" to="bottom-exit" type="L0-HDV"/>
    <trip id="L0-HDV-287" depart="653.82" from="left-approaching" to="right-exit" type="L0-HDV"/>
    <trip id="L0-HDV-288" depart="655.68" from="left-approaching" to="bottom-exit" type="L0-HDV"/>
    <trip id="L0-HDV-289" depart="657.54" from="left-approaching" to="left-exit" type="L0-HDV"/>
    <trip id="L0-HDV-290" depart="659.40" from="left-approaching" to="left-exit" type="L0-HDV"/>
    <trip id="L0-HDV-291" depart="661.26" from="bottom-approaching" to="bottom-exit" type="L0-HDV"/>
    <trip id="L0-HDV-292" depart="663.12" from="right-approaching" to="right-exit" type="L0-HDV"/>
    <trip id="L0-HDV-293" depart="664.98" from="left-approaching" to="bottom-exit" type="L0-HDV"/>
    <trip id="L0-HDV-294" depart="666.84" from="left-approaching" to="left-exit" type="L0-HDV"/>
    <trip id="L0-HDV-295" depart="668.70" from="top-approaching" to="left-exit" type="L0-HDV"/>
    <trip id="L0-HDV-296" depart="670.56" from="top-approaching" to="left-exit" type="L0-HDV"/>
    <trip id="L0-HDV-297" depart="672.42" from="bottom-approaching" to="right-exit" type="L0-HDV"/>
    <trip id="L0-HDV-298" depart="674.28" from="right-approaching" to="right-exit" type="L0-HDV"/>
    <trip id="L0-HDV-299" depart="676.14" from="right-approaching" to="bottom-exit" type="L0-HDV"/>
    <trip id="L0-HDV-300" depart="678.00" from="left-approaching" to="top-exit" type="L0-HDV"/>
    <trip id="L0-HDV-301" depart="679.86" from="bottom-approaching" to="bottom-exit" type="L0-HDV"/>