<?xml version="1.0" encoding="UTF-8"?>
<!-- generated on 2021-02-25 14:29:38.920049 by $Id$ v1_8_0+0044-4820708f3d
  options: -n Roadworks/RoadworksIntersection.net.xml <doubleminus>fringe-factor 40 -r Roadworks/Route-Files/L0-HDV-Route.rou.xml <doubleminus>trip-attributes=type="L0-HDV" -l <doubleminus>prefix L0-HDV- <doubleminus>seed 8 -p 0.7
-->
<routes xmlns:xsi="http://www.w3.org/2001/XMLSchema-instance" xsi:noNamespaceSchemaLocation="http://sumo.dlr.de/xsd/routes_file.xsd">
    <trip id="L0-HDV-0" depart="0.00" from="bottom-approaching" to="top-exit" type="L0-HDV"/>
    <trip id="L0-HDV-1" depart="0.70" from="bottom-approaching" to="right-exit" type="L0-HDV"/>
    <trip id="L0-HDV-2" depart="1.40" from="bottom-approaching" to="bottom-exit" type="L0-HDV"/>
    <trip id="L0-HDV-3" depart="2.10" from="top-approaching" to="bottom-exit" type="L0-HDV"/>
    <trip id="L0-HDV-4" depart="2.80" from="right-approaching" to="left-exit" type="L0-HDV"/>
    <trip id="L0-HDV-5" depart="3.50" from="left-long-approaching" to="left-exit" type="L0-HDV"/>
    <trip id="L0-HDV-6" depart="4.20" from="bottom-approaching" to="top-exit" type="L0-HDV"/>
    <trip id="L0-HDV-7" depart="4.90" from="bottom-approaching" to="bottom-exit" type="L0-HDV"/>
    <trip id="L0-HDV-8" depart="5.60" from="bottom-approaching" to="left-exit" type="L0-HDV"/>
    <trip id="L0-HDV-9" depart="6.30" from="left-long-approaching" to="top-exit" type="L0-HDV"/>
    <trip id="L0-HDV-10" depart="7.00" from="left-long-approaching" to="bottom-exit" type="L0-HDV"/>
    <trip id="L0-HDV-11" depart="7.70" from="left-long-approaching" to="top-exit" type="L0-HDV"/>
    <trip id="L0-HDV-12" depart="8.40" from="bottom-approaching" to="right-exit" type="L0-HDV"/>
    <trip id="L0-HDV-13" depart="9.10" from="left-long-approaching" to="right-exit" type="L0-HDV"/>
    <trip id="L0-HDV-14" depart="9.80" from="left-long-approaching" to="right-exit" type="L0-HDV"/>
    <trip id="L0-HDV-15" depart="10.50" from="preparation" to="right-exit" type="L0-HDV"/>
    <trip id="L0-HDV-16" depart="11.20" from="top-approaching" to="right-exit" type="L0-HDV"/>
    <trip id="L0-HDV-17" depart="11.90" from="bottom-approaching" to="bottom-exit" type="L0-HDV"/>
    <trip id="L0-HDV-18" depart="12.60" from="top-approaching" to="left-exit" type="L0-HDV"/>
    <trip id="L0-HDV-19" depart="13.30" from="bottom-approaching" to="top-exit" type="L0-HDV"/>
    <trip id="L0-HDV-20" depart="14.00" from="right-approaching" to="right-exit" type="L0-HDV"/>
    <trip id="L0-HDV-21" depart="14.70" from="top-approaching" to="left-exit" type="L0-HDV"/>
    <trip id="L0-HDV-22" depart="15.40" from="left-long-approaching" to="top-exit" type="L0-HDV"/>
    <trip id="L0-HDV-23" depart="16.10" from="bottom-approaching" to="top-exit" type="L0-HDV"/>
    <trip id="L0-HDV-24" depart="16.80" from="bottom-approaching" to="right-exit" type="L0-HDV"/>
    <trip id="L0-HDV-25" depart="17.50" from="right-approaching" to="top-exit" type="L0-HDV"/>
    <trip id="L0-HDV-26" depart="18.20" from="top-approaching" to="preparation" type="L0-HDV"/>
    <trip id="L0-HDV-27" depart="18.90" from="bottom-approaching" to="bottom-exit" type="L0-HDV"/>
    <trip id="L0-HDV-28" depart="19.60" from="right-approaching" to="right-exit" type="L0-HDV"/>
    <trip id="L0-HDV-29" depart="20.30" from="bottom-approaching" to="top-exit" type="L0-HDV"/>
    <trip id="L0-HDV-30" depart="21.00" from="right-approaching" to="right-exit" type="L0-HDV"/>
    <trip id="L0-HDV-31" depart="21.70" from="bottom-approaching" to="bottom-exit" type="L0-HDV"/>
    <trip id="L0-HDV-32" depart="22.40" from="bottom-approaching" to="left-exit" type="L0-HDV"/>
    <trip id="L0-HDV-33" depart="23.10" from="left-long-approaching" to="left-exit" type="L0-HDV"/>
    <trip id="L0-HDV-34" depart="23.80" from="left-long-approaching" to="top-exit" type="L0-HDV"/>
    <trip id="L0-HDV-35" depart="24.50" from="top-approaching" to="bottom-exit" type="L0-HDV"/>
    <trip id="L0-HDV-36" depart="25.20" from="left-long-approaching" to="bottom-exit" type="L0-HDV"/>
    <trip id="L0-HDV-37" depart="25.90" from="right-approaching" to="top-exit" type="L0-HDV"/>
    <trip id="L0-HDV-38" depart="26.60" from="bottom-approaching" to="top-exit" type="L0-HDV"/>
    <trip id="L0-HDV-39" depart="27.30" from="left-long-approaching" to="bottom-exit" type="L0-HDV"/>
    <trip id="L0-HDV-40" depart="28.00" from="top-approaching" to="left-exit" type="L0-HDV"/>
    <trip id="L0-HDV-41" depart="28.70" from="bottom-approaching" to="left-exit" type="L0-HDV"/>
    <trip id="L0-HDV-42" depart="29.40" from="bottom-approaching" to="left-exit" type="L0-HDV"/>
    <trip id="L0-HDV-43" depart="30.10" from="left-long-approaching" to="left-exit" type="L0-HDV"/>
    <trip id="L0-HDV-44" depart="30.80" from="right-approaching" to="left-exit" type="L0-HDV"/>
    <trip id="L0-HDV-45" depart="31.50" from="bottom-approaching" to="bottom-exit" type="L0-HDV"/>
    <trip id="L0-HDV-46" depart="32.20" from="bottom-approaching" to="right-exit" type="L0-HDV"/>
    <trip id="L0-HDV-47" depart="32.90" from="left-long-approaching" to="top-exit" type="L0-HDV"/>
    <trip id="L0-HDV-48" depart="33.60" from="right-approaching" to="right-exit" type="L0-HDV"/>
    <trip id="L0-HDV-49" depart="34.30" from="top-approaching" to="bottom-exit" type="L0-HDV"/>
    <trip id="L0-HDV-50" depart="35.00" from="bottom-approaching" to="bottom-exit" type="L0-HDV"/>
    <trip id="L0-HDV-51" depart="35.70" from="left-long-approaching" to="right-exit" type="L0-HDV"/>
    <trip id="L0-HDV-52" depart="36.40" from="right-approaching" to="left-exit" type="L0-HDV"/>
    <trip id="L0-HDV-53" depart="37.10" from="top-approaching" to="bottom-exit" type="L0-HDV"/>
    <trip id="L0-HDV-54" depart="37.80" from="top-approaching" to="bottom-exit" type="L0-HDV"/>
    <trip id="L0-HDV-55" depart="38.50" from="top-approaching" to="bottom-exit" type="L0-HDV"/>
    <trip id="L0-HDV-56" depart="39.20" from="top-approaching" to="top-exit" type="L0-HDV"/>
    <trip id="L0-HDV-57" depart="39.90" from="top-approaching" to="right-exit" type="L0-HDV"/>
    <trip id="L0-HDV-58" depart="40.60" from="bottom-approaching" to="top-exit" type="L0-HDV"/>
    <trip id="L0-HDV-59" depart="41.30" from="left-long-approaching" to="bottom-exit" type="L0-HDV"/>
    <trip id="L0-HDV-60" depart="42.00" from="right-approaching" to="left-short-approaching" type="L0-HDV"/>
    <trip id="L0-HDV-61" depart="42.70" from="left-long-approaching" to="bottom-exit" type="L0-HDV"/>
    <trip id="L0-HDV-62" depart="43.40" from="bottom-approaching" to="right-exit" type="L0-HDV"/>
    <trip id="L0-HDV-63" depart="44.10" from="left-long-approaching" to="bottom-exit" type="L0-HDV"/>
    <trip id="L0-HDV-64" depart="44.80" from="left-long-approaching" to="right-exit" type="L0-HDV"/>
    <trip id="L0-HDV-65" depart="45.50" from="right-approaching" to="left-exit" type="L0-HDV"/>
    <trip id="L0-HDV-66" depart="46.20" from="left-long-approaching" to="left-exit" type="L0-HDV"/>
    <trip id="L0-HDV-67" depart="46.90" from="bottom-approaching" to="bottom-exit" type="L0-HDV"/>
    <trip id="L0-HDV-68" depart="47.60" from="left-long-approaching" to="bottom-exit" type="L0-HDV"/>
    <trip id="L0-HDV-69" depart="48.30" from="right-approaching" to="right-exit" type="L0-HDV"/>
    <trip id="L0-HDV-70" depart="49.00" from="right-approaching" to="bottom-exit" type="L0-HDV"/>
    <trip id="L0-HDV-71" depart="49.70" from="left-long-approaching" to="left-exit" type="L0-HDV"/>
    <trip id="L0-HDV-72" depart="50.40" from="bottom-approaching" to="top-exit" type="L0-HDV"/>
    <trip id="L0-HDV-73" depart="51.10" from="top-approaching" to="preparation" type="L0-HDV"/>
    <trip id="L0-HDV-74" depart="51.80" from="right-approaching" to="bottom-exit" type="L0-HDV"/>
    <trip id="L0-HDV-75" depart="52.50" from="bottom-approaching" to="right-exit" type="L0-HDV"/>
    <trip id="L0-HDV-76" depart="53.20" from="right-approaching" to="right-exit" type="L0-HDV"/>
    <trip id="L0-HDV-77" depart="53.90" from="bottom-approaching" to="right-exit" type="L0-HDV"/>
    <trip id="L0-HDV-78" depart="54.60" from="top-approaching" to="right-exit" type="L0-HDV"/>
    <trip id="L0-HDV-79" depart="55.30" from="top-approaching" to="top-exit" type="L0-HDV"/>
    <trip id="L0-HDV-80" depart="56.00" from="bottom-approaching" to="left-exit" type="L0-HDV"/>
    <trip id="L0-HDV-81" depart="56.70" from="right-approaching" to="top-exit" type="L0-HDV"/>
    <trip id="L0-HDV-82" depart="57.40" from="left-long-approaching" to="top-exit" type="L0-HDV"/>
    <trip id="L0-HDV-83" depart="58.10" from="top-approaching" to="right-exit" type="L0-HDV"/>
    <trip id="L0-HDV-84" depart="58.80" from="right-approaching" to="top-exit" type="L0-HDV"/>
    <trip id="L0-HDV-85" depart="59.50" from="top-approaching" to="left-exit" type="L0-HDV"/>
    <trip id="L0-HDV-86" depart="60.20" from="top-approaching" to="bottom-exit" type="L0-HDV"/>
    <trip id="L0-HDV-87" depart="60.90" from="left-long-approaching" to="top-exit" type="L0-HDV"/>
    <trip id="L0-HDV-88" depart="61.60" from="top-approaching" to="left-exit" type="L0-HDV"/>
    <trip id="L0-HDV-89" depart="62.30" from="left-long-approaching" to="right-exit" type="L0-HDV"/>
    <trip id="L0-HDV-90" depart="63.00" from="top-approaching" to="right-exit" type="L0-HDV"/>
    <trip id="L0-HDV-91" depart="63.70" from="top-approaching" to="right-exit" type="L0-HDV"/>
    <trip id="L0-HDV-92" depart="64.40" from="top-approaching" to="right-exit" type="L0-HDV"/>
    <trip id="L0-HDV-93" depart="65.10" from="left-long-approaching" to="left-exit" type="L0-HDV"/>
    <trip id="L0-HDV-94" depart="65.80" from="left-long-approaching" to="right-exit" type="L0-HDV"/>
    <trip id="L0-HDV-95" depart="66.50" from="top-approaching" to="left-exit" type="L0-HDV"/>
    <trip id="L0-HDV-96" depart="67.20" from="bottom-approaching" to="right-exit" type="L0-HDV"/>
    <trip id="L0-HDV-97" depart="67.90" from="left-long-approaching" to="left-exit" type="L0-HDV"/>
    <trip id="L0-HDV-98" depart="68.60" from="bottom-approaching" to="top-exit" type="L0-HDV"/>
    <trip id="L0-HDV-99" depart="69.30" from="left-long-approaching" to="left-exit" type="L0-HDV"/>
    <trip id="L0-HDV-100" depart="70.00" from="top-approaching" to="right-exit" type="L0-HDV"/>
    <trip id="L0-HDV-101" depart="70.70" from="left-long-approaching" to="top-exit" type="L0-HDV"/>
    <trip id="L0-HDV-102" depart="71.40" from="left-long-approaching" to="left-exit" type="L0-HDV"/>
    <trip id="L0-HDV-103" depart="72.10" from="top-approaching" to="top-exit" type="L0-HDV"/>
    <trip id="L0-HDV-104" depart="72.80" from="right-approaching" to="left-exit" type="L0-HDV"/>
    <trip id="L0-HDV-105" depart="73.50" from="top-approaching" to="right-exit" type="L0-HDV"/>
    <trip id="L0-HDV-106" depart="74.20" from="top-approaching" to="left-exit" type="L0-HDV"/>
    <trip id="L0-HDV-107" depart="74.90" from="top-approaching" to="top-exit" type="L0-HDV"/>
    <trip id="L0-HDV-108" depart="75.60" from="left-long-approaching" to="right-exit" type="L0-HDV"/>
    <trip id="L0-HDV-109" depart="76.30" from="top-approaching" to="top-exit" type="L0-HDV"/>
    <trip id="L0-HDV-110" depart="77.00" from="top-approaching" to="top-exit" type="L0-HDV"/>
    <trip id="L0-HDV-111" depart="77.70" from="bottom-approaching" to="right-exit" type="L0-HDV"/>
    <trip id="L0-HDV-112" depart="78.40" from="right-approaching" to="bottom-exit" type="L0-HDV"/>
    <trip id="L0-HDV-113" depart="79.10" from="left-long-approaching" to="top-exit" type="L0-HDV"/>
    <trip id="L0-HDV-114" depart="79.80" from="top-approaching" to="top-exit" type="L0-HDV"/>
    <trip id="L0-HDV-115" depart="80.50" from="bottom-approaching" to="right-exit" type="L0-HDV"/>
    <trip id="L0-HDV-116" depart="81.20" from="top-approaching" to="right-exit" type="L0-HDV"/>
    <trip id="L0-HDV-117" depart="81.90" from="left-long-approaching" to="bottom-exit" type="L0-HDV"/>
    <trip id="L0-HDV-118" depart="82.60" from="top-approaching" to="top-exit" type="L0-HDV"/>
    <trip id="L0-HDV-119" depart="83.30" from="right-approaching" to="left-exit" type="L0-HDV"/>
    <trip id="L0-HDV-120" depart="84.00" from="top-approaching" to="top-exit" type="L0-HDV"/>
    <trip id="L0-HDV-121" depart="84.70" from="right-approaching" to="right-exit" type="L0-HDV"/>
    <trip id="L0-HDV-122" depart="85.40" from="left-long-approaching" to="left-exit" type="L0-HDV"/>
    <trip id="L0-HDV-123" depart="86.10" from="left-long-approaching" to="left-exit" type="L0-HDV"/>
    <trip id="L0-HDV-124" depart="86.80" from="right-approaching" to="bottom-exit" type="L0-HDV"/>
    <trip id="L0-HDV-125" depart="87.50" from="right-approaching" to="left-exit" type="L0-HDV"/>
    <trip id="L0-HDV-126" depart="88.20" from="bottom-approaching" to="left-exit" type="L0-HDV"/>
    <trip id="L0-HDV-127" depart="88.90" from="left-long-approaching" to="left-exit" type="L0-HDV"/>
    <trip id="L0-HDV-128" depart="89.60" from="top-approaching" to="bottom-exit" type="L0-HDV"/>
    <trip id="L0-HDV-129" depart="90.30" from="bottom-approaching" to="left-exit" type="L0-HDV"/>
    <trip id="L0-HDV-130" depart="91.00" from="bottom-approaching" to="right-exit" type="L0-HDV"/>
    <trip id="L0-HDV-131" depart="91.70" from="bottom-approaching" to="bottom-exit" type="L0-HDV"/>
    <trip id="L0-HDV-132" depart="92.40" from="right-approaching" to="right-exit" type="L0-HDV"/>
    <trip id="L0-HDV-133" depart="93.10" from="top-approaching" to="right-exit" type="L0-HDV"/>
    <trip id="L0-HDV-134" depart="93.80" from="left-long-approaching" to="top-exit" type="L0-HDV"/>
    <trip id="L0-HDV-135" depart="94.50" from="right-approaching" to="left-exit" type="L0-HDV"/>
    <trip id="L0-HDV-136" depart="95.20" from="right-approaching" to="top-exit" type="L0-HDV"/>
    <trip id="L0-HDV-137" depart="95.90" from="top-approaching" to="top-exit" type="L0-HDV"/>
    <trip id="L0-HDV-138" depart="96.60" from="bottom-approaching" to="left-exit" type="L0-HDV"/>
    <trip id="L0-HDV-139" depart="97.30" from="left-long-approaching" to="bottom-exit" type="L0-HDV"/>
    <trip id="L0-HDV-140" depart="98.00" from="top-approaching" to="bottom-exit" type="L0-HDV"/>
    <trip id="L0-HDV-141" depart="98.70" from="top-approaching" to="right-exit" type="L0-HDV"/>
    <trip id="L0-HDV-142" depart="99.40" from="right-approaching" to="left-exit" type="L0-HDV"/>
    <trip id="L0-HDV-143" depart="100.10" from="top-approaching" to="right-exit" type="L0-HDV"/>
    <trip id="L0-HDV-144" depart="100.80" from="top-approaching" to="top-exit" type="L0-HDV"/>
    <trip id="L0-HDV-145" depart="101.50" from="right-approaching" to="top-exit" type="L0-HDV"/>
    <trip id="L0-HDV-146" depart="102.20" from="left-long-approaching" to="left-exit" type="L0-HDV"/>
    <trip id="L0-HDV-147" depart="102.90" from="top-approaching" to="right-exit" type="L0-HDV"/>
    <trip id="L0-HDV-148" depart="103.60" from="left-long-approaching" to="right-exit" type="L0-HDV"/>
    <trip id="L0-HDV-149" depart="104.30" from="left-long-approaching" to="bottom-exit" type="L0-HDV"/>
    <trip id="L0-HDV-150" depart="105.00" from="top-approaching" to="preparation" type="L0-HDV"/>
    <trip id="L0-HDV-151" depart="105.70" from="top-approaching" to="right-exit" type="L0-HDV"/>
    <trip id="L0-HDV-152" depart="106.40" from="top-approaching" to="left-exit" type="L0-HDV"/>
    <trip id="L0-HDV-153" depart="107.10" from="bottom-approaching" to="right-exit" type="L0-HDV"/>
    <trip id="L0-HDV-154" depart="107.80" from="top-approaching" to="top-exit" type="L0-HDV"/>
    <trip id="L0-HDV-155" depart="108.50" from="right-approaching" to="bottom-exit" type="L0-HDV"/>
    <trip id="L0-HDV-156" depart="109.20" from="left-long-approaching" to="bottom-exit" type="L0-HDV"/>
    <trip id="L0-HDV-157" depart="109.90" from="left-long-approaching" to="top-exit" type="L0-HDV"/>
    <trip id="L0-HDV-158" depart="110.60" from="left-long-approaching" to="right-exit" type="L0-HDV"/>
    <trip id="L0-HDV-159" depart="111.30" from="right-approaching" to="bottom-exit" type="L0-HDV"/>
    <trip id="L0-HDV-160" depart="112.00" from="right-approaching" to="bottom-exit" type="L0-HDV"/>
    <trip id="L0-HDV-161" depart="112.70" from="bottom-approaching" to="right-exit" type="L0-HDV"/>
    <trip id="L0-HDV-162" depart="113.40" from="bottom-approaching" to="top-exit" type="L0-HDV"/>
    <trip id="L0-HDV-163" depart="114.10" from="left-long-approaching" to="right-exit" type="L0-HDV"/>
    <trip id="L0-HDV-164" depart="114.80" from="top-approaching" to="bottom-exit" type="L0-HDV"/>
    <trip id="L0-HDV-165" depart="115.50" from="top-approaching" to="bottom-exit" type="L0-HDV"/>
    <trip id="L0-HDV-166" depart="116.20" from="right-approaching" to="right-exit" type="L0-HDV"/>
    <trip id="L0-HDV-167" depart="116.90" from="top-approaching" to="left-exit" type="L0-HDV"/>
    <trip id="L0-HDV-168" depart="117.60" from="top-approaching" to="right-exit" type="L0-HDV"/>
    <trip id="L0-HDV-169" depart="118.30" from="left-long-approaching" to="bottom-exit" type="L0-HDV"/>
    <trip id="L0-HDV-170" depart="119.00" from="bottom-approaching" to="left-exit" type="L0-HDV"/>
    <trip id="L0-HDV-171" depart="119.70" from="left-long-approaching" to="left-exit" type="L0-HDV"/>
    <trip id="L0-HDV-172" depart="120.40" from="top-approaching" to="left-exit" type="L0-HDV"/>
    <trip id="L0-HDV-173" depart="121.10" from="right-approaching" to="bottom-exit" type="L0-HDV"/>
    <trip id="L0-HDV-174" depart="121.80" from="bottom-approaching" to="right-exit" type="L0-HDV"/>
    <trip id="L0-HDV-175" depart="122.50" from="top-approaching" to="left-exit" type="L0-HDV"/>
    <trip id="L0-HDV-176" depart="123.20" from="bottom-approaching" to="bottom-exit" type="L0-HDV"/>
    <trip id="L0-HDV-177" depart="123.90" from="left-long-approaching" to="left-exit" type="L0-HDV"/>
    <trip id="L0-HDV-178" depart="124.60" from="right-approaching" to="left-exit" type="L0-HDV"/>
    <trip id="L0-HDV-179" depart="125.30" from="right-approaching" to="top-exit" type="L0-HDV"/>
    <trip id="L0-HDV-180" depart="126.00" from="top-approaching" to="right-exit" type="L0-HDV"/>
    <trip id="L0-HDV-181" depart="126.70" from="right-approaching" to="left-exit" type="L0-HDV"/>
    <trip id="L0-HDV-182" depart="127.40" from="top-approaching" to="left-exit" type="L0-HDV"/>
    <trip id="L0-HDV-183" depart="128.10" from="top-approaching" to="left-exit" type="L0-HDV"/>
    <trip id="L0-HDV-184" depart="128.80" from="right-approaching" to="preparation" type="L0-HDV"/>
    <trip id="L0-HDV-185" depart="129.50" from="right-approaching" to="left-exit" type="L0-HDV"/>
    <trip id="L0-HDV-186" depart="130.20" from="right-approaching" to="right-exit" type="L0-HDV"/>
    <trip id="L0-HDV-187" depart="130.90" from="left-long-approaching" to="right-exit" type="L0-HDV"/>
    <trip id="L0-HDV-188" depart="131.60" from="left-long-approaching" to="left-exit" type="L0-HDV"/>
    <trip id="L0-HDV-189" depart="132.30" from="left-long-approaching" to="right-exit" type="L0-HDV"/>
    <trip id="L0-HDV-190" depart="133.00" from="right-approaching" to="bottom-exit" type="L0-HDV"/>
    <trip id="L0-HDV-191" depart="133.70" from="bottom-approaching" to="top-exit" type="L0-HDV"/>
    <trip id="L0-HDV-192" depart="134.40" from="bottom-approaching" to="top-exit" type="L0-HDV"/>
    <trip id="L0-HDV-193" depart="135.10" from="top-approaching" to="bottom-exit" type="L0-HDV"/>
    <trip id="L0-HDV-194" depart="135.80" from="right-approaching" to="left-exit" type="L0-HDV"/>
    <trip id="L0-HDV-195" depart="136.50" from="top-approaching" to="bottom-exit" type="L0-HDV"/>
    <trip id="L0-HDV-196" depart="137.20" from="bottom-approaching" to="bottom-exit" type="L0-HDV"/>
    <trip id="L0-HDV-197" depart="137.90" from="right-approaching" to="bottom-exit" type="L0-HDV"/>
    <trip id="L0-HDV-198" depart="138.60" from="left-long-approaching" to="top-exit" type="L0-HDV"/>
    <trip id="L0-HDV-199" depart="139.30" from="right-approaching" to="right-exit" type="L0-HDV"/>
    <trip id="L0-HDV-200" depart="140.00" from="right-approaching" to="right-exit" type="L0-HDV"/>
    <trip id="L0-HDV-201" depart="140.70" from="bottom-approaching" to="top-exit" type="L0-HDV"/>
    <trip id="L0-HDV-202" depart="141.40" from="left-long-approaching" to="top-exit" type="L0-HDV"/>
    <trip id="L0-HDV-203" depart="142.10" from="left-long-approaching" to="top-exit" type="L0-HDV"/>
    <trip id="L0-HDV-204" depart="142.80" from="bottom-approaching" to="top-exit" type="L0-HDV"/>
    <trip id="L0-HDV-205" depart="143.50" from="bottom-approaching" to="right-exit" type="L0-HDV"/>
    <trip id="L0-HDV-206" depart="144.20" from="left-long-approaching" to="top-exit" type="L0-HDV"/>
    <trip id="L0-HDV-207" depart="144.90" from="right-approaching" to="top-exit" type="L0-HDV"/>
    <trip id="L0-HDV-208" depart="145.60" from="top-approaching" to="left-exit" type="L0-HDV"/>
    <trip id="L0-HDV-209" depart="146.30" from="bottom-approaching" to="bottom-exit" type="L0-HDV"/>
    <trip id="L0-HDV-210" depart="147.00" from="right-approaching" to="top-exit" type="L0-HDV"/>
    <trip id="L0-HDV-211" depart="147.70" from="right-approaching" to="left-exit" type="L0-HDV"/>
    <trip id="L0-HDV-212" depart="148.40" from="right-approaching" to="right-exit" type="L0-HDV"/>
    <trip id="L0-HDV-213" depart="149.10" from="left-long-approaching" to="right-exit" type="L0-HDV"/>
    <trip id="L0-HDV-214" depart="149.80" from="bottom-approaching" to="bottom-exit" type="L0-HDV"/>
    <trip id="L0-HDV-215" depart="150.50" from="bottom-approaching" to="left-exit" type="L0-HDV"/>
    <trip id="L0-HDV-216" depart="151.20" from="right-approaching" to="bottom-exit" type="L0-HDV"/>
    <trip id="L0-HDV-217" depart="151.90" from="left-long-approaching" to="right-exit" type="L0-HDV"/>
    <trip id="L0-HDV-218" depart="152.60" from="left-long-approaching" to="right-exit" type="L0-HDV"/>
    <trip id="L0-HDV-219" depart="153.30" from="right-approaching" to="left-exit" type="L0-HDV"/>
    <trip id="L0-HDV-220" depart="154.00" from="bottom-approaching" to="right-exit" type="L0-HDV"/>
    <trip id="L0-HDV-221" depart="154.70" from="right-approaching" to="bottom-exit" type="L0-HDV"/>
    <trip id="L0-HDV-222" depart="155.40" from="top-approaching" to="right-exit" type="L0-HDV"/>
    <trip id="L0-HDV-223" depart="156.10" from="top-approaching" to="top-exit" type="L0-HDV"/>
    <trip id="L0-HDV-224" depart="156.80" from="left-long-approaching" to="right-exit" type="L0-HDV"/>
    <trip id="L0-HDV-225" depart="157.50" from="left-long-approaching" to="right-exit" type="L0-HDV"/>
    <trip id="L0-HDV-226" depart="158.20" from="bottom-approaching" to="left-exit" type="L0-HDV"/>
    <trip id="L0-HDV-227" depart="158.90" from="right-approaching" to="top-exit" type="L0-HDV"/>
    <trip id="L0-HDV-228" depart="159.60" from="right-approaching" to="top-exit" type="L0-HDV"/>
    <trip id="L0-HDV-229" depart="160.30" from="top-approaching" to="top-exit" type="L0-HDV"/>
    <trip id="L0-HDV-230" depart="161.00" from="right-approaching" to="right-exit" type="L0-HDV"/>
    <trip id="L0-HDV-231" depart="161.70" from="left-long-approaching" to="bottom-exit" type="L0-HDV"/>
    <trip id="L0-HDV-232" depart="162.40" from="top-approaching" to="right-exit" type="L0-HDV"/>
    <trip id="L0-HDV-233" depart="163.10" from="bottom-approaching" to="bottom-exit" type="L0-HDV"/>
    <trip id="L0-HDV-234" depart="163.80" from="bottom-approaching" to="right-exit" type="L0-HDV"/>
    <trip id="L0-HDV-235" depart="164.50" from="right-approaching" to="bottom-exit" type="L0-HDV"/>
    <trip id="L0-HDV-236" depart="165.20" from="right-approaching" to="right-exit" type="L0-HDV"/>
    <trip id="L0-HDV-237" depart="165.90" from="left-long-approaching" to="left-exit" type="L0-HDV"/>
    <trip id="L0-HDV-238" depart="166.60" from="top-approaching" to="bottom-exit" type="L0-HDV"/>
    <trip id="L0-HDV-239" depart="167.30" from="bottom-approaching" to="right-exit" type="L0-HDV"/>
    <trip id="L0-HDV-240" depart="168.00" from="top-approaching" to="top-exit" type="L0-HDV"/>
    <trip id="L0-HDV-241" depart="168.70" from="left-long-approaching" to="top-exit" type="L0-HDV"/>
    <trip id="L0-HDV-242" depart="169.40" from="bottom-approaching" to="left-exit" type="L0-HDV"/>
    <trip id="L0-HDV-243" depart="170.10" from="top-approaching" to="right-exit" type="L0-HDV"/>
    <trip id="L0-HDV-244" depart="170.80" from="left-long-approaching" to="right-exit" type="L0-HDV"/>
    <trip id="L0-HDV-245" depart="171.50" from="left-long-approaching" to="right-exit" type="L0-HDV"/>
    <trip id="L0-HDV-246" depart="172.20" from="top-approaching" to="top-exit" type="L0-HDV"/>
    <trip id="L0-HDV-247" depart="172.90" from="bottom-approaching" to="top-exit" type="L0-HDV"/>
    <trip id="L0-HDV-248" depart="173.60" from="top-approaching" to="right-exit" type="L0-HDV"/>
    <trip id="L0-HDV-249" depart="174.30" from="preparation" to="left-exit" type="L0-HDV"/>
    <trip id="L0-HDV-250" depart="175.00" from="left-long-approaching" to="right-exit" type="L0-HDV"/>
    <trip id="L0-HDV-251" depart="175.70" from="right-approaching" to="bottom-exit" type="L0-HDV"/>
    <trip id="L0-HDV-252" depart="176.40" from="top-approaching" to="left-exit" type="L0-HDV"/>
    <trip id="L0-HDV-253" depart="177.10" from="right-approaching" to="bottom-exit" type="L0-HDV"/>
    <trip id="L0-HDV-254" depart="177.80" from="right-approaching" to="bottom-exit" type="L0-HDV"/>
    <trip id="L0-HDV-255" depart="178.50" from="left-long-approaching" to="left-exit" type="L0-HDV"/>
    <trip id="L0-HDV-256" depart="179.20" from="left-long-approaching" to="left-exit" type="L0-HDV"/>
    <trip id="L0-HDV-257" depart="179.90" from="bottom-approaching" to="left-exit" type="L0-HDV"/>
    <trip id="L0-HDV-258" depart="180.60" from="top-approaching" to="right-exit" type="L0-HDV"/>
    <trip id="L0-HDV-259" depart="181.30" from="top-approaching" to="top-exit" type="L0-HDV"/>
    <trip id="L0-HDV-260" depart="182.00" from="left-long-approaching" to="left-exit" type="L0-HDV"/>
    <trip id="L0-HDV-261" depart="182.70" from="top-approaching" to="top-exit" type="L0-HDV"/>
    <trip id="L0-HDV-262" depart="183.40" from="right-approaching" to="right-exit" type="L0-HDV"/>
    <trip id="L0-HDV-263" depart="184.10" from="right-approaching" to="right-exit" type="L0-HDV"/>
    <trip id="L0-HDV-264" depart="184.80" from="right-approaching" to="left-exit" type="L0-HDV"/>
    <trip id="L0-HDV-265" depart="185.50" from="left-long-approaching" to="left-exit" type="L0-HDV"/>
    <trip id="L0-HDV-266" depart="186.20" from="top-approaching" to="bottom-exit" type="L0-HDV"/>
    <trip id="L0-HDV-267" depart="186.90" from="bottom-approaching" to="top-exit" type="L0-HDV"/>
    <trip id="L0-HDV-268" depart="187.60" from="right-approaching" to="right-exit" type="L0-HDV"/>
    <trip id="L0-HDV-269" depart="188.30" from="top-approaching" to="right-exit" type="L0-HDV"/>
    <trip id="L0-HDV-270" depart="189.00" from="right-approaching" to="top-exit" type="L0-HDV"/>
    <trip id="L0-HDV-271" depart="189.70" from="right-approaching" to="left-exit" type="L0-HDV"/>
    <trip id="L0-HDV-272" depart="190.40" from="bottom-approaching" to="bottom-exit" type="L0-HDV"/>
    <trip id="L0-HDV-273" depart="191.10" from="top-approaching" to="top-exit" type="L0-HDV"/>
    <trip id="L0-HDV-274" depart="191.80" from="left-long-approaching" to="right-exit" type="L0-HDV"/>
    <trip id="L0-HDV-275" depart="192.50" from="right-approaching" to="right-exit" type="L0-HDV"/>
    <trip id="L0-HDV-276" depart="193.20" from="left-long-approaching" to="top-exit" type="L0-HDV"/>
    <trip id="L0-HDV-277" depart="193.90" from="right-approaching" to="right-exit" type="L0-HDV"/>
    <trip id="L0-HDV-278" depart="194.60" from="right-approaching" to="left-exit" type="L0-HDV"/>
    <trip id="L0-HDV-279" depart="195.30" from="right-approaching" to="bottom-exit" type="L0-HDV"/>
    <trip id="L0-HDV-280" depart="196.00" from="right-approaching" to="right-exit" type="L0-HDV"/>
    <trip id="L0-HDV-281" depart="196.70" from="right-approaching" to="left-exit" type="L0-HDV"/>
    <trip id="L0-HDV-282" depart="197.40" from="bottom-approaching" to="bottom-exit" type="L0-HDV"/>
    <trip id="L0-HDV-283" depart="198.10" from="bottom-approaching" to="bottom-exit" type="L0-HDV"/>
    <trip id="L0-HDV-284" depart="198.80" from="left-long-approaching" to="right-exit" type="L0-HDV"/>
    <trip id="L0-HDV-285" depart="199.50" from="right-approaching" to="left-exit" type="L0-HDV"/>
    <trip id="L0-HDV-286" depart="200.20" from="top-approaching" to="bottom-exit" type="L0-HDV"/>
    <trip id="L0-HDV-287" depart="200.90" from="left-long-approaching" to="bottom-exit" type="L0-HDV"/>
    <trip id="L0-HDV-288" depart="201.60" from="right-approaching" to="right-exit" type="L0-HDV"/>
    <trip id="L0-HDV-289" depart="202.30" from="right-approaching" to="left-exit" type="L0-HDV"/>
    <trip id="L0-HDV-290" depart="203.00" from="left-long-approaching" to="left-exit" type="L0-HDV"/>
    <trip id="L0-HDV-291" depart="203.70" from="bottom-approaching" to="bottom-exit" type="L0-HDV"/>
    <trip id="L0-HDV-292" depart="204.40" from="left-long-approaching" to="right-exit" type="L0-HDV"/>
    <trip id="L0-HDV-293" depart="205.10" from="bottom-approaching" to="top-exit" type="L0-HDV"/>
    <trip id="L0-HDV-294" depart="205.80" from="bottom-approaching" to="bottom-exit" type="L0-HDV"/>
    <trip id="L0-HDV-295" depart="206.50" from="left-long-approaching" to="left-exit" type="L0-HDV"/>
    <trip id="L0-HDV-296" depart="207.20" from="right-approaching" to="right-exit" type="L0-HDV"/>
    <trip id="L0-HDV-297" depart="207.90" from="right-approaching" to="top-exit" type="L0-HDV"/>
    <trip id="L0-HDV-298" depart="208.60" from="left-long-approaching" to="right-exit" type="L0-HDV"/>