<?xml version="1.0" encoding="UTF-8"?>
<!-- generated on 2021-02-24 21:13:22.231973 by $Id$ v1_8_0+0044-4820708f3d
  options: -n Roadworks/RoadworksIntersection.net.xml <doubleminus>fringe-factor 20 -r Roadworks/Route-Files/L0-HDV-Route.rou.xml <doubleminus>trip-attributes=type="L0-HDV" -l <doubleminus>prefix L0-HDV- <doubleminus>seed 1 -p 1.18
-->
<routes xmlns:xsi="http://www.w3.org/2001/XMLSchema-instance" xsi:noNamespaceSchemaLocation="http://sumo.dlr.de/xsd/routes_file.xsd">
    <trip id="L0-HDV-0" depart="0.00" from="bottom-approaching" to="top-exit" type="L0-HDV"/>
    <trip id="L0-HDV-1" depart="1.18" from="top-approaching" to="left-exit" type="L0-HDV"/>
    <trip id="L0-HDV-2" depart="2.36" from="preparation" to="left-exit" type="L0-HDV"/>
    <trip id="L0-HDV-3" depart="3.54" from="right-approaching" to="top-exit" type="L0-HDV"/>
    <trip id="L0-HDV-4" depart="4.72" from="bottom-approaching" to="bottom-exit" type="L0-HDV"/>
    <trip id="L0-HDV-5" depart="5.90" from="top-approaching" to="left-exit" type="L0-HDV"/>
    <trip id="L0-HDV-6" depart="7.08" from="top-approaching" to="bottom-exit" type="L0-HDV"/>
    <trip id="L0-HDV-7" depart="8.26" from="left-long-approaching" to="right-exit" type="L0-HDV"/>
    <trip id="L0-HDV-8" depart="9.44" from="bottom-approaching" to="top-exit" type="L0-HDV"/>
    <trip id="L0-HDV-9" depart="10.62" from="top-approaching" to="bottom-exit" type="L0-HDV"/>
    <trip id="L0-HDV-10" depart="11.80" from="bottom-approaching" to="right-exit" type="L0-HDV"/>
    <trip id="L0-HDV-11" depart="12.98" from="top-approaching" to="left-exit" type="L0-HDV"/>
    <trip id="L0-HDV-12" depart="14.16" from="bottom-approaching" to="left-exit" type="L0-HDV"/>
    <trip id="L0-HDV-13" depart="15.34" from="bottom-approaching" to="bottom-exit" type="L0-HDV"/>
    <trip id="L0-HDV-14" depart="16.52" from="left-long-approaching" to="preparation" type="L0-HDV"/>
    <trip id="L0-HDV-15" depart="17.70" from="bottom-approaching" to="bottom-exit" type="L0-HDV"/>
    <trip id="L0-HDV-16" depart="18.88" from="bottom-approaching" to="left-exit" type="L0-HDV"/>
    <trip id="L0-HDV-17" depart="20.06" from="left-long-approaching" to="bottom-exit" type="L0-HDV"/>
    <trip id="L0-HDV-18" depart="21.24" from="top-approaching" to="right-exit" type="L0-HDV"/>
    <trip id="L0-HDV-19" depart="22.42" from="right-approaching" to="bottom-exit" type="L0-HDV"/>
    <trip id="L0-HDV-20" depart="23.60" from="top-approaching" to="top-exit" type="L0-HDV"/>
    <trip id="L0-HDV-21" depart="24.78" from="bottom-approaching" to="left-exit" type="L0-HDV"/>
    <trip id="L0-HDV-22" depart="25.96" from="right-approaching" to="right-exit" type="L0-HDV"/>
    <trip id="L0-HDV-23" depart="27.14" from="top-approaching" to="left-exit" type="L0-HDV"/>
    <trip id="L0-HDV-24" depart="28.32" from="top-approaching" to="right-exit" type="L0-HDV"/>
    <trip id="L0-HDV-25" depart="29.50" from="left-long-approaching" to="right-exit" type="L0-HDV"/>
    <trip id="L0-HDV-26" depart="30.68" from="top-approaching" to="top-exit" type="L0-HDV"/>
    <trip id="L0-HDV-27" depart="31.86" from="preparation" to="right-exit" type="L0-HDV"/>
    <trip id="L0-HDV-28" depart="33.04" from="bottom-approaching" to="bottom-exit" type="L0-HDV"/>
    <trip id="L0-HDV-29" depart="34.22" from="top-approaching" to="left-exit" type="L0-HDV"/>
    <trip id="L0-HDV-30" depart="35.40" from="bottom-approaching" to="right-exit" type="L0-HDV"/>
    <trip id="L0-HDV-31" depart="36.58" from="right-approaching" to="right-exit" type="L0-HDV"/>
    <trip id="L0-HDV-32" depart="37.76" from="left-long-approaching" to="left-exit" type="L0-HDV"/>
    <trip id="L0-HDV-33" depart="38.94" from="right-approaching" to="top-exit" type="L0-HDV"/>
    <trip id="L0-HDV-34" depart="40.12" from="right-approaching" to="left-exit" type="L0-HDV"/>
    <trip id="L0-HDV-35" depart="41.30" from="left-long-approaching" to="bottom-exit" type="L0-HDV"/>
    <trip id="L0-HDV-36" depart="42.48" from="bottom-approaching" to="right-exit" type="L0-HDV"/>
    <trip id="L0-HDV-37" depart="43.66" from="top-approaching" to="right-exit" type="L0-HDV"/>
    <trip id="L0-HDV-38" depart="44.84" from="left-long-approaching" to="bottom-exit" type="L0-HDV"/>
    <trip id="L0-HDV-39" depart="46.02" from="preparation" to="top-exit" type="L0-HDV"/>
    <trip id="L0-HDV-40" depart="47.20" from="top-approaching" to="right-exit" type="L0-HDV"/>
    <trip id="L0-HDV-41" depart="48.38" from="top-approaching" to="bottom-exit" type="L0-HDV"/>
    <trip id="L0-HDV-42" depart="49.56" from="right-approaching" to="top-exit" type="L0-HDV"/>
    <trip id="L0-HDV-43" depart="50.74" from="right-approaching" to="left-exit" type="L0-HDV"/>
    <trip id="L0-HDV-44" depart="51.92" from="left-long-approaching" to="right-exit" type="L0-HDV"/>
    <trip id="L0-HDV-45" depart="53.10" from="top-approaching" to="bottom-exit" type="L0-HDV"/>
    <trip id="L0-HDV-46" depart="54.28" from="top-approaching" to="top-exit" type="L0-HDV"/>
    <trip id="L0-HDV-47" depart="55.46" from="top-approaching" to="right-exit" type="L0-HDV"/>
    <trip id="L0-HDV-48" depart="56.64" from="top-approaching" to="right-exit" type="L0-HDV"/>
    <trip id="L0-HDV-49" depart="57.82" from="right-approaching" to="left-exit" type="L0-HDV"/>
    <trip id="L0-HDV-50" depart="59.00" from="bottom-approaching" to="top-exit" type="L0-HDV"/>
    <trip id="L0-HDV-51" depart="60.18" from="right-approaching" to="bottom-exit" type="L0-HDV"/>
    <trip id="L0-HDV-52" depart="61.36" from="preparation" to="left-exit" type="L0-HDV"/>
    <trip id="L0-HDV-53" depart="62.54" from="left-long-approaching" to="left-exit" type="L0-HDV"/>
    <trip id="L0-HDV-54" depart="63.72" from="right-approaching" to="right-exit" type="L0-HDV"/>
    <trip id="L0-HDV-55" depart="64.90" from="right-approaching" to="left-exit" type="L0-HDV"/>
    <trip id="L0-HDV-56" depart="66.08" from="bottom-approaching" to="bottom-exit" type="L0-HDV"/>
    <trip id="L0-HDV-57" depart="67.26" from="bottom-approaching" to="right-exit" type="L0-HDV"/>
    <trip id="L0-HDV-58" depart="68.44" from="top-approaching" to="top-exit" type="L0-HDV"/>
    <trip id="L0-HDV-59" depart="69.62" from="top-approaching" to="top-exit" type="L0-HDV"/>
    <trip id="L0-HDV-60" depart="70.80" from="left-long-approaching" to="top-exit" type="L0-HDV"/>
    <trip id="L0-HDV-61" depart="71.98" from="right-approaching" to="bottom-exit" type="L0-HDV"/>
    <trip id="L0-HDV-62" depart="73.16" from="bottom-approaching" to="bottom-exit" type="L0-HDV"/>
    <trip id="L0-HDV-63" depart="74.34" from="top-approaching" to="left-exit" type="L0-HDV"/>
    <trip id="L0-HDV-64" depart="75.52" from="bottom-approaching" to="right-exit" type="L0-HDV"/>
    <trip id="L0-HDV-65" depart="76.70" from="left-long-approaching" to="bottom-exit" type="L0-HDV"/>
    <trip id="L0-HDV-66" depart="77.88" from="bottom-approaching" to="right-exit" type="L0-HDV"/>
    <trip id="L0-HDV-67" depart="79.06" from="bottom-approaching" to="left-exit" type="L0-HDV"/>
    <trip id="L0-HDV-68" depart="80.24" from="right-approaching" to="left-exit" type="L0-HDV"/>
    <trip id="L0-HDV-69" depart="81.42" from="left-long-approaching" to="left-exit" type="L0-HDV"/>
    <trip id="L0-HDV-70" depart="82.60" from="bottom-approaching" to="left-exit" type="L0-HDV"/>
    <trip id="L0-HDV-71" depart="83.78" from="left-long-approaching" to="bottom-exit" type="L0-HDV"/>
    <trip id="L0-HDV-72" depart="84.96" from="bottom-approaching" to="top-exit" type="L0-HDV"/>
    <trip id="L0-HDV-73" depart="86.14" from="right-approaching" to="bottom-exit" type="L0-HDV"/>
    <trip id="L0-HDV-74" depart="87.32" from="right-approaching" to="top-exit" type="L0-HDV"/>
    <trip id="L0-HDV-75" depart="88.50" from="bottom-approaching" to="bottom-exit" type="L0-HDV"/>
    <trip id="L0-HDV-76" depart="89.68" from="bottom-approaching" to="right-exit" type="L0-HDV"/>
    <trip id="L0-HDV-77" depart="90.86" from="bottom-approaching" to="right-exit" type="L0-HDV"/>
    <trip id="L0-HDV-78" depart="92.04" from="right-approaching" to="right-exit" type="L0-HDV"/>
    <trip id="L0-HDV-79" depart="93.22" from="bottom-approaching" to="top-exit" type="L0-HDV"/>
    <trip id="L0-HDV-80" depart="94.40" from="top-approaching" to="right-exit" type="L0-HDV"/>
    <trip id="L0-HDV-81" depart="95.58" from="bottom-approaching" to="right-exit" type="L0-HDV"/>
    <trip id="L0-HDV-82" depart="96.76" from="left-long-approaching" to="right-exit" type="L0-HDV"/>
    <trip id="L0-HDV-83" depart="97.94" from="left-long-approaching" to="right-exit" type="L0-HDV"/>
    <trip id="L0-HDV-84" depart="99.12" from="bottom-approaching" to="left-exit" type="L0-HDV"/>
    <trip id="L0-HDV-85" depart="100.30" from="top-approaching" to="top-exit" type="L0-HDV"/>
    <trip id="L0-HDV-86" depart="101.48" from="left-long-approaching" to="top-exit" type="L0-HDV"/>
    <trip id="L0-HDV-87" depart="102.66" from="left-long-approaching" to="top-exit" type="L0-HDV"/>
    <trip id="L0-HDV-88" depart="103.84" from="right-approaching" to="left-exit" type="L0-HDV"/>
    <trip id="L0-HDV-89" depart="105.02" from="left-long-approaching" to="bottom-exit" type="L0-HDV"/>
    <trip id="L0-HDV-90" depart="106.20" from="top-approaching" to="bottom-exit" type="L0-HDV"/>
    <trip id="L0-HDV-91" depart="107.38" from="top-approaching" to="top-exit" type="L0-HDV"/>
    <trip id="L0-HDV-92" depart="108.56" from="right-approaching" to="bottom-exit" type="L0-HDV"/>
    <trip id="L0-HDV-93" depart="109.74" from="top-approaching" to="top-exit" type="L0-HDV"/>
    <trip id="L0-HDV-94" depart="110.92" from="right-approaching" to="right-exit" type="L0-HDV"/>
    <trip id="L0-HDV-95" depart="112.10" from="left-long-approaching" to="left-exit" type="L0-HDV"/>
    <trip id="L0-HDV-96" depart="113.28" from="bottom-approaching" to="right-exit" type="L0-HDV"/>
    <trip id="L0-HDV-97" depart="114.46" from="left-long-approaching" to="bottom-exit" type="L0-HDV"/>
    <trip id="L0-HDV-98" depart="115.64" from="bottom-approaching" to="right-exit" type="L0-HDV"/>
    <trip id="L0-HDV-99" depart="116.82" from="left-long-approaching" to="preparation" type="L0-HDV"/>
    <trip id="L0-HDV-100" depart="118.00" from="left-long-approaching" to="top-exit" type="L0-HDV"/>
    <trip id="L0-HDV-101" depart="119.18" from="top-approaching" to="bottom-exit" type="L0-HDV"/>
    <trip id="L0-HDV-102" depart="120.36" from="bottom-approaching" to="left-exit" type="L0-HDV"/>
    <trip id="L0-HDV-103" depart="121.54" from="top-approaching" to="top-exit" type="L0-HDV"/>
    <trip id="L0-HDV-104" depart="122.72" from="left-long-approaching" to="bottom-exit" type="L0-HDV"/>
    <trip id="L0-HDV-105" depart="123.90" from="right-approaching" to="top-exit" type="L0-HDV"/>
    <trip id="L0-HDV-106" depart="125.08" from="top-approaching" to="left-exit" type="L0-HDV"/>
    <trip id="L0-HDV-107" depart="126.26" from="top-approaching" to="right-exit" type="L0-HDV"/>
    <trip id="L0-HDV-108" depart="127.44" from="left-long-approaching" to="top-exit" type="L0-HDV"/>
    <trip id="L0-HDV-109" depart="128.62" from="bottom-approaching" to="right-exit" type="L0-HDV"/>
    <trip id="L0-HDV-110" depart="129.80" from="bottom-approaching" to="bottom-exit" type="L0-HDV"/>
    <trip id="L0-HDV-111" depart="130.98" from="top-approaching" to="bottom-exit" type="L0-HDV"/>
    <trip id="L0-HDV-112" depart="132.16" from="top-approaching" to="right-exit" type="L0-HDV"/>
    <trip id="L0-HDV-113" depart="133.34" from="top-approaching" to="left-exit" type="L0-HDV"/>
    <trip id="L0-HDV-114" depart="134.52" from="left-long-approaching" to="left-exit" type="L0-HDV"/>
    <trip id="L0-HDV-115" depart="135.70" from="top-approaching" to="right-exit" type="L0-HDV"/>
    <trip id="L0-HDV-116" depart="136.88" from="top-approaching" to="top-exit" type="L0-HDV"/>
    <trip id="L0-HDV-117" depart="138.06" from="bottom-approaching" to="right-exit" type="L0-HDV"/>
    <trip id="L0-HDV-118" depart="139.24" from="bottom-approaching" to="bottom-exit" type="L0-HDV"/>
    <trip id="L0-HDV-119" depart="140.42" from="bottom-approaching" to="top-exit" type="L0-HDV"/>
    <trip id="L0-HDV-120" depart="141.60" from="top-approaching" to="top-exit" type="L0-HDV"/>
    <trip id="L0-HDV-121" depart="142.78" from="left-long-approaching" to="right-exit" type="L0-HDV"/>
    <trip id="L0-HDV-122" depart="143.96" from="top-approaching" to="left-exit" type="L0-HDV"/>
    <trip id="L0-HDV-123" depart="145.14" from="right-approaching" to="bottom-exit" type="L0-HDV"/>
    <trip id="L0-HDV-124" depart="146.32" from="bottom-approaching" to="left-exit" type="L0-HDV"/>
    <trip id="L0-HDV-125" depart="147.50" from="top-approaching" to="right-exit" type="L0-HDV"/>
    <trip id="L0-HDV-126" depart="148.68" from="top-approaching" to="left-exit" type="L0-HDV"/>
    <trip id="L0-HDV-127" depart="149.86" from="left-long-approaching" to="top-exit" type="L0-HDV"/>
    <trip id="L0-HDV-128" depart="151.04" from="top-approaching" to="bottom-exit" type="L0-HDV"/>
    <trip id="L0-HDV-129" depart="152.22" from="right-approaching" to="bottom-exit" type="L0-HDV"/>
    <trip id="L0-HDV-130" depart="153.40" from="bottom-approaching" to="top-exit" type="L0-HDV"/>
    <trip id="L0-HDV-131" depart="154.58" from="bottom-approaching" to="bottom-exit" type="L0-HDV"/>
    <trip id="L0-HDV-132" depart="155.76" from="top-approaching" to="left-exit" type="L0-HDV"/>
    <trip id="L0-HDV-133" depart="156.94" from="bottom-approaching" to="bottom-exit" type="L0-HDV"/>
    <trip id="L0-HDV-134" depart="158.12" from="bottom-approaching" to="right-exit" type="L0-HDV"/>
    <trip id="L0-HDV-135" depart="159.30" from="bottom-approaching" to="top-exit" type="L0-HDV"/>
    <trip id="L0-HDV-136" depart="160.48" from="left-long-approaching" to="top-exit" type="L0-HDV"/>
    <trip id="L0-HDV-137" depart="161.66" from="top-approaching" to="left-exit" type="L0-HDV"/>
    <trip id="L0-HDV-138" depart="162.84" from="left-long-approaching" to="left-exit" type="L0-HDV"/>
    <trip id="L0-HDV-139" depart="164.02" from="bottom-approaching" to="right-exit" type="L0-HDV"/>
    <trip id="L0-HDV-140" depart="165.20" from="bottom-approaching" to="bottom-exit" type="L0-HDV"/>
    <trip id="L0-HDV-141" depart="166.38" from="top-approaching" to="left-exit" type="L0-HDV"/>
    <trip id="L0-HDV-142" depart="167.56" from="right-approaching" to="left-exit" type="L0-HDV"/>
    <trip id="L0-HDV-143" depart="168.74" from="left-long-approaching" to="bottom-exit" type="L0-HDV"/>
    <trip id="L0-HDV-144" depart="169.92" from="top-approaching" to="top-exit" type="L0-HDV"/>
    <trip id="L0-HDV-145" depart="171.10" from="top-approaching" to="bottom-exit" type="L0-HDV"/>
    <trip id="L0-HDV-146" depart="172.28" from="bottom-approaching" to="right-exit" type="L0-HDV"/>
    <trip id="L0-HDV-147" depart="173.46" from="top-approaching" to="right-exit" type="L0-HDV"/>
    <trip id="L0-HDV-148" depart="174.64" from="right-approaching" to="right-exit" type="L0-HDV"/>
    <trip id="L0-HDV-149" depart="175.82" from="left-long-approaching" to="right-exit" type="L0-HDV"/>
    <trip id="L0-HDV-150" depart="177.00" from="left-long-approaching" to="closed-lane" type="L0-HDV"/>
    <trip id="L0-HDV-151" depart="178.18" from="bottom-approaching" to="left-exit" type="L0-HDV"/>
    <trip id="L0-HDV-152" depart="179.36" from="top-approaching" to="left-exit" type="L0-HDV"/>
    <trip id="L0-HDV-153" depart="180.54" from="right-approaching" to="right-exit" type="L0-HDV"/>
    <trip id="L0-HDV-154" depart="181.72" from="top-approaching" to="left-exit" type="L0-HDV"/>
    <trip id="L0-HDV-155" depart="182.90" from="left-long-approaching" to="left-exit" type="L0-HDV"/>
    <trip id="L0-HDV-156" depart="184.08" from="left-long-approaching" to="top-exit" type="L0-HDV"/>
    <trip id="L0-HDV-157" depart="185.26" from="top-approaching" to="left-exit" type="L0-HDV"/>
    <trip id="L0-HDV-158" depart="186.44" from="left-long-approaching" to="right-exit" type="L0-HDV"/>
    <trip id="L0-HDV-159" depart="187.62" from="right-approaching" to="right-exit" type="L0-HDV"/>
    <trip id="L0-HDV-160" depart="188.80" from="bottom-approaching" to="bottom-exit" type="L0-HDV"/>
    <trip id="L0-HDV-161" depart="189.98" from="bottom-approaching" to="bottom-exit" type="L0-HDV"/>
    <trip id="L0-HDV-162" depart="191.16" from="right-approaching" to="bottom-exit" type="L0-HDV"/>
    <trip id="L0-HDV-163" depart="192.34" from="bottom-approaching" to="right-exit" type="L0-HDV"/>
    <trip id="L0-HDV-164" depart="193.52" from="left-long-approaching" to="top-exit" type="L0-HDV"/>
    <trip id="L0-HDV-165" depart="194.70" from="left-short-approaching" to="top-exit" type="L0-HDV"/>
    <trip id="L0-HDV-166" depart="195.88" from="bottom-approaching" to="preparation" type="L0-HDV"/>
    <trip id="L0-HDV-167" depart="197.06" from="top-approaching" to="bottom-exit" type="L0-HDV"/>
    <trip id="L0-HDV-168" depart="198.24" from="top-approaching" to="bottom-exit" type="L0-HDV"/>
    <trip id="L0-HDV-169" depart="199.42" from="top-approaching" to="top-exit" type="L0-HDV"/>
    <trip id="L0-HDV-170" depart="200.60" from="top-approaching" to="left-exit" type="L0-HDV"/>
    <trip id="L0-HDV-171" depart="201.78" from="bottom-approaching" to="right-exit" type="L0-HDV"/>
    <trip id="L0-HDV-172" depart="202.96" from="top-approaching" to="left-exit" type="L0-HDV"/>
    <trip id="L0-HDV-173" depart="204.14" from="top-approaching" to="bottom-exit" type="L0-HDV"/>
    <trip id="L0-HDV-174" depart="205.32" from="top-approaching" to="bottom-exit" type="L0-HDV"/>
    <trip id="L0-HDV-175" depart="206.50" from="left-long-approaching" to="top-exit" type="L0-HDV"/>
    <trip id="L0-HDV-176" depart="207.68" from="top-approaching" to="top-exit" type="L0-HDV"/>
    <trip id="L0-HDV-177" depart="208.86" from="top-approaching" to="right-exit" type="L0-HDV"/>
    <trip id="L0-HDV-178" depart="210.04" from="right-approaching" to="bottom-exit" type="L0-HDV"/>
    <trip id="L0-HDV-179" depart="211.22" from="left-long-approaching" to="bottom-exit" type="L0-HDV"/>
    <trip id="L0-HDV-180" depart="212.40" from="right-approaching" to="right-exit" type="L0-HDV"/>
    <trip id="L0-HDV-181" depart="213.58" from="left-long-approaching" to="bottom-exit" type="L0-HDV"/>
    <trip id="L0-HDV-182" depart="214.76" from="top-approaching" to="top-exit" type="L0-HDV"/>
    <trip id="L0-HDV-183" depart="215.94" from="right-approaching" to="right-exit" type="L0-HDV"/>
    <trip id="L0-HDV-184" depart="217.12" from="top-approaching" to="left-exit" type="L0-HDV"/>
    <trip id="L0-HDV-185" depart="218.30" from="left-long-approaching" to="left-exit" type="L0-HDV"/>
    <trip id="L0-HDV-186" depart="219.48" from="left-long-approaching" to="bottom-exit" type="L0-HDV"/>
    <trip id="L0-HDV-187" depart="220.66" from="right-approaching" to="left-exit" type="L0-HDV"/>
    <trip id="L0-HDV-188" depart="221.84" from="right-approaching" to="bottom-exit" type="L0-HDV"/>
    <trip id="L0-HDV-189" depart="223.02" from="left-long-approaching" to="bottom-exit" type="L0-HDV"/>
    <trip id="L0-HDV-190" depart="224.20" from="bottom-approaching" to="left-exit" type="L0-HDV"/>
    <trip id="L0-HDV-191" depart="225.38" from="top-approaching" to="left-exit" type="L0-HDV"/>
    <trip id="L0-HDV-192" depart="226.56" from="left-long-approaching" to="right-exit" type="L0-HDV"/>
    <trip id="L0-HDV-193" depart="227.74" from="bottom-approaching" to="bottom-exit" type="L0-HDV"/>
    <trip id="L0-HDV-194" depart="228.92" from="right-approaching" to="preparation" type="L0-HDV"/>
    <trip id="L0-HDV-195" depart="230.10" from="right-approaching" to="left-exit" type="L0-HDV"/>
    <trip id="L0-HDV-196" depart="231.28" from="right-approaching" to="right-exit" type="L0-HDV"/>
    <trip id="L0-HDV-197" depart="232.46" from="bottom-approaching" to="left-short-approaching" type="L0-HDV"/>
    <trip id="L0-HDV-198" depart="233.64" from="left-long-approaching" to="bottom-exit" type="L0-HDV"/>
    <trip id="L0-HDV-199" depart="234.82" from="left-long-approaching" to="right-exit" type="L0-HDV"/>
    <trip id="L0-HDV-200" depart="236.00" from="top-approaching" to="top-exit" type="L0-HDV"/>
    <trip id="L0-HDV-201" depart="237.18" from="left-long-approaching" to="right-exit" type="L0-HDV"/>
    <trip id="L0-HDV-202" depart="238.36" from="bottom-approaching" to="bottom-exit" type="L0-HDV"/>
    <trip id="L0-HDV-203" depart="239.54" from="right-approaching" to="top-exit" type="L0-HDV"/>
    <trip id="L0-HDV-204" depart="240.72" from="bottom-approaching" to="top-exit" type="L0-HDV"/>
    <trip id="L0-HDV-205" depart="241.90" from="top-approaching" to="left-exit" type="L0-HDV"/>
    <trip id="L0-HDV-206" depart="243.08" from="right-approaching" to="top-exit" type="L0-HDV"/>
    <trip id="L0-HDV-207" depart="244.26" from="left-long-approaching" to="right-exit" type="L0-HDV"/>
    <trip id="L0-HDV-208" depart="245.44" from="right-approaching" to="right-exit" type="L0-HDV"/>
    <trip id="L0-HDV-209" depart="246.62" from="top-approaching" to="top-exit" type="L0-HDV"/>
    <trip id="L0-HDV-210" depart="247.80" from="top-approaching" to="right-exit" type="L0-HDV"/>
    <trip id="L0-HDV-211" depart="248.98" from="bottom-approaching" to="left-exit" type="L0-HDV"/>
    <trip id="L0-HDV-212" depart="250.16" from="bottom-approaching" to="right-exit" type="L0-HDV"/>
    <trip id="L0-HDV-213" depart="251.34" from="top-approaching" to="bottom-exit" type="L0-HDV"/>
    <trip id="L0-HDV-214" depart="252.52" from="right-approaching" to="right-exit" type="L0-HDV"/>
    <trip id="L0-HDV-215" depart="253.70" from="left-long-approaching" to="right-exit" type="L0-HDV"/>
    <trip id="L0-HDV-216" depart="254.88" from="bottom-approaching" to="right-exit" type="L0-HDV"/>
    <trip id="L0-HDV-217" depart="256.06" from="bottom-approaching" to="top-exit" type="L0-HDV"/>
    <trip id="L0-HDV-218" depart="257.24" from="top-approaching" to="right-exit" type="L0-HDV"/>
    <trip id="L0-HDV-219" depart="258.42" from="left-long-approaching" to="top-exit" type="L0-HDV"/>
    <trip id="L0-HDV-220" depart="259.60" from="top-approaching" to="bottom-exit" type="L0-HDV"/>
    <trip id="L0-HDV-221" depart="260.78" from="top-approaching" to="top-exit" type="L0-HDV"/>
    <trip id="L0-HDV-222" depart="261.96" from="right-approaching" to="right-exit" type="L0-HDV"/>
    <trip id="L0-HDV-223" depart="263.14" from="left-long-approaching" to="top-exit" type="L0-HDV"/>
    <trip id="L0-HDV-224" depart="264.32" from="top-approaching" to="left-exit" type="L0-HDV"/>
    <trip id="L0-HDV-225" depart="265.50" from="top-approaching" to="left-exit" type="L0-HDV"/>
    <trip id="L0-HDV-226" depart="266.68" from="bottom-approaching" to="left-exit" type="L0-HDV"/>
    <trip id="L0-HDV-227" depart="267.86" from="bottom-approaching" to="top-exit" type="L0-HDV"/>
    <trip id="L0-HDV-228" depart="269.04" from="top-approaching" to="bottom-exit" type="L0-HDV"/>
    <trip id="L0-HDV-229" depart="270.22" from="right-approaching" to="left-exit" type="L0-HDV"/>
    <trip id="L0-HDV-230" depart="271.40" from="bottom-approaching" to="left-exit" type="L0-HDV"/>
    <trip id="L0-HDV-231" depart="272.58" from="left-long-approaching" to="right-exit" type="L0-HDV"/>
    <trip id="L0-HDV-232" depart="273.76" from="bottom-approaching" to="bottom-exit" type="L0-HDV"/>
    <trip id="L0-HDV-233" depart="274.94" from="left-long-approaching" to="bottom-exit" type="L0-HDV"/>
    <trip id="L0-HDV-234" depart="276.12" from="right-approaching" to="right-exit" type="L0-HDV"/>
    <trip id="L0-HDV-235" depart="277.30" from="top-approaching" to="bottom-exit" type="L0-HDV"/>
    <trip id="L0-HDV-236" depart="278.48" from="left-long-approaching" to="right-exit" type="L0-HDV"/>
    <trip id="L0-HDV-237" depart="279.66" from="left-long-approaching" to="right-exit" type="L0-HDV"/>
    <trip id="L0-HDV-238" depart="280.84" from="left-long-approaching" to="right-exit" type="L0-HDV"/>
    <trip id="L0-HDV-239" depart="282.02" from="top-approaching" to="top-exit" type="L0-HDV"/>
    <trip id="L0-HDV-240" depart="283.20" from="top-approaching" to="right-exit" type="L0-HDV"/>
    <trip id="L0-HDV-241" depart="284.38" from="left-long-approaching" to="top-exit" type="L0-HDV"/>
    <trip id="L0-HDV-242" depart="285.56" from="top-approaching" to="right-exit" type="L0-HDV"/>
    <trip id="L0-HDV-243" depart="286.74" from="left-long-approaching" to="left-exit" type="L0-HDV"/>
    <trip id="L0-HDV-244" depart="287.92" from="bottom-approaching" to="top-exit" type="L0-HDV"/>
    <trip id="L0-HDV-245" depart="289.10" from="bottom-approaching" to="right-exit" type="L0-HDV"/>
    <trip id="L0-HDV-246" depart="290.28" from="right-approaching" to="top-exit" type="L0-HDV"/>
    <trip id="L0-HDV-247" depart="291.46" from="top-approaching" to="top-exit" type="L0-HDV"/>
    <trip id="L0-HDV-248" depart="292.64" from="bottom-approaching" to="preparation" type="L0-HDV"/>
    <trip id="L0-HDV-249" depart="293.82" from="right-approaching" to="left-exit" type="L0-HDV"/>
    <trip id="L0-HDV-250" depart="295.00" from="preparation" to="left-exit" type="L0-HDV"/>
    <trip id="L0-HDV-251" depart="296.18" from="right-approaching" to="bottom-exit" type="L0-HDV"/>
    <trip id="L0-HDV-252" depart="297.36" from="left-long-approaching" to="left-exit" type="L0-HDV"/>
    <trip id="L0-HDV-253" depart="298.54" from="left-long-approaching" to="left-exit" type="L0-HDV"/>
    <trip id="L0-HDV-254" depart="299.72" from="top-approaching" to="right-exit" type="L0-HDV"/>
    <trip id="L0-HDV-255" depart="300.90" from="left-long-approaching" to="right-exit" type="L0-HDV"/>
    <trip id="L0-HDV-256" depart="302.08" from="left-long-approaching" to="bottom-exit" type="L0-HDV"/>
    <trip id="L0-HDV-257" depart="303.26" from="bottom-approaching" to="left-exit" type="L0-HDV"/>
    <trip id="L0-HDV-258" depart="304.44" from="right-approaching" to="top-exit" type="L0-HDV"/>
    <trip id="L0-HDV-259" depart="305.62" from="top-approaching" to="right-exit" type="L0-HDV"/>
    <trip id="L0-HDV-260" depart="306.80" from="top-approaching" to="left-exit" type="L0-HDV"/>
    <trip id="L0-HDV-261" depart="307.98" from="top-approaching" to="left-exit" type="L0-HDV"/>
    <trip id="L0-HDV-262" depart="309.16" from="right-approaching" to="top-exit" type="L0-HDV"/>
    <trip id="L0-HDV-263" depart="310.34" from="left-long-approaching" to="bottom-exit" type="L0-HDV"/>
    <trip id="L0-HDV-264" depart="311.52" from="right-approaching" to="right-exit" type="L0-HDV"/>
    <trip id="L0-HDV-265" depart="312.70" from="left-long-approaching" to="bottom-exit" type="L0-HDV"/>
    <trip id="L0-HDV-266" depart="313.88" from="left-long-approaching" to="left-exit" type="L0-HDV"/>
    <trip id="L0-HDV-267" depart="315.06" from="left-long-approaching" to="top-exit" type="L0-HDV"/>
    <trip id="L0-HDV-268" depart="316.24" from="right-approaching" to="right-exit" type="L0-HDV"/>
    <trip id="L0-HDV-269" depart="317.42" from="top-approaching" to="right-exit" type="L0-HDV"/>
    <trip id="L0-HDV-270" depart="318.60" from="left-long-approaching" to="right-exit" type="L0-HDV"/>
    <trip id="L0-HDV-271" depart="319.78" from="right-approaching" to="right-exit" type="L0-HDV"/>
    <trip id="L0-HDV-272" depart="320.96" from="right-approaching" to="left-exit" type="L0-HDV"/>
    <trip id="L0-HDV-273" depart="322.14" from="right-approaching" to="right-exit" type="L0-HDV"/>
    <trip id="L0-HDV-274" depart="323.32" from="top-approaching" to="top-exit" type="L0-HDV"/>
    <trip id="L0-HDV-275" depart="324.50" from="top-approaching" to="top-exit" type="L0-HDV"/>
    <trip id="L0-HDV-276" depart="325.68" from="top-approaching" to="right-exit" type="L0-HDV"/>
    <trip id="L0-HDV-277" depart="326.86" from="left-long-approaching" to="left-exit" type="L0-HDV"/>
    <trip id="L0-HDV-278" depart="328.04" from="right-approaching" to="top-exit" type="L0-HDV"/>
    <trip id="L0-HDV-279" depart="329.22" from="right-approaching" to="bottom-exit" type="L0-HDV"/>
    <trip id="L0-HDV-280" depart="330.40" from="top-approaching" to="left-exit" type="L0-HDV"/>
    <trip id="L0-HDV-281" depart="331.58" from="left-long-approaching" to="bottom-exit" type="L0-HDV"/>
    <trip id="L0-HDV-282" depart="332.76" from="right-approaching" to="right-exit" type="L0-HDV"/>
    <trip id="L0-HDV-283" depart="333.94" from="left-long-approaching" to="left-exit" type="L0-HDV"/>
    <trip id="L0-HDV-284" depart="335.12" from="right-approaching" to="bottom-exit" type="L0-HDV"/>
    <trip id="L0-HDV-285" depart="336.30" from="preparation" to="top-exit" type="L0-HDV"/>
    <trip id="L0-HDV-286" depart="337.48" from="right-approaching" to="left-exit" type="L0-HDV"/>
    <trip id="L0-HDV-287" depart="338.66" from="right-approaching" to="right-exit" type="L0-HDV"/>
    <trip id="L0-HDV-288" depart="339.84" from="bottom-approaching" to="bottom-exit" type="L0-HDV"/>
    <trip id="L0-HDV-289" depart="341.02" from="top-approaching" to="left-exit" type="L0-HDV"/>
    <trip id="L0-HDV-290" depart="342.20" from="bottom-approaching" to="top-exit" type="L0-HDV"/>
    <trip id="L0-HDV-291" depart="343.38" from="right-approaching" to="left-exit" type="L0-HDV"/>
    <trip id="L0-HDV-292" depart="344.56" from="right-approaching" to="right-exit" type="L0-HDV"/>
    <trip id="L0-HDV-293" depart="345.74" from="bottom-approaching" to="right-exit" type="L0-HDV"/>
    <trip id="L0-HDV-294" depart="346.92" from="right-approaching" to="top-exit" type="L0-HDV"/>
    <trip id="L0-HDV-295" depart="348.10" from="left-long-approaching" to="right-exit" type="L0-HDV"/>
    <trip id="L0-HDV-296" depart="349.28" from="bottom-approaching" to="right-exit" type="L0-HDV"/>
    <trip id="L0-HDV-297" depart="350.46" from="bottom-approaching" to="top-exit" type="L0-HDV"/>
    <trip id="L0-HDV-298" depart="351.64" from="top-approaching" to="left-exit" type="L0-HDV"/>