<?xml version="1.0" encoding="UTF-8"?>
<!-- generated on 2021-03-08 22:23:37.111780 by $Id$ v1_8_0+0044-4820708f3d
  options: -n Collision/CollisionIntersection.net.xml -r Collision/BaselineCAV/Route-Files/L4-CV-Route.rou.xml <doubleminus>trip-attributes=type="L4-CV" -b 120 -l <doubleminus>prefix L4-CV- <doubleminus>seed 7 -p 1.07
-->
<routes xmlns:xsi="http://www.w3.org/2001/XMLSchema-instance" xsi:noNamespaceSchemaLocation="http://sumo.dlr.de/xsd/routes_file.xsd">
    <trip id="L4-CV-0" depart="120.00" from="left-approaching" to="bottom-exit" type="L4-CV"/>
    <trip id="L4-CV-1" depart="121.07" from="right-approaching" to="bottom-exit" type="L4-CV"/>
    <trip id="L4-CV-2" depart="122.14" from="left-approaching" to="left-exit" type="L4-CV"/>
    <trip id="L4-CV-3" depart="123.21" from="bottom-approaching" to="left-exit" type="L4-CV"/>
    <trip id="L4-CV-4" depart="124.28" from="bottom-approaching" to="left-exit" type="L4-CV"/>
    <trip id="L4-CV-5" depart="125.35" from="bottom-approaching" to="bottom-exit" type="L4-CV"/>
    <trip id="L4-CV-6" depart="126.42" from="left-approaching" to="top-exit" type="L4-CV"/>
    <trip id="L4-CV-7" depart="127.49" from="bottom-approaching" to="left-exit" type="L4-CV"/>
    <trip id="L4-CV-8" depart="128.56" from="right-approaching" to="top-exit" type="L4-CV"/>
    <trip id="L4-CV-9" depart="129.63" from="left-approaching" to="left-exit" type="L4-CV"/>
    <trip id="L4-CV-10" depart="130.70" from="top-approaching" to="bottom-exit" type="L4-CV"/>
    <trip id="L4-CV-11" depart="131.77" from="top-approaching" to="left-exit" type="L4-CV"/>
    <trip id="L4-CV-12" depart="132.84" from="bottom-approaching" to="bottom-exit" type="L4-CV"/>
    <trip id="L4-CV-13" depart="133.91" from="left-approaching" to="top-exit" type="L4-CV"/>
    <trip id="L4-CV-14" depart="134.98" from="bottom-approaching" to="left-exit" type="L4-CV"/>
    <trip id="L4-CV-15" depart="136.05" from="right-approaching" to="left-exit" type="L4-CV"/>
    <trip id="L4-CV-16" depart="137.12" from="left-approaching" to="bottom-exit" type="L4-CV"/>
    <trip id="L4-CV-17" depart="138.19" from="bottom-approaching" to="bottom-exit" type="L4-CV"/>
    <trip id="L4-CV-18" depart="139.26" from="right-approaching" to="left-exit" type="L4-CV"/>
    <trip id="L4-CV-19" depart="140.33" from="left-approaching" to="right-exit" type="L4-CV"/>
    <trip id="L4-CV-20" depart="141.40" from="left-approaching" to="left-exit" type="L4-CV"/>
    <trip id="L4-CV-21" depart="142.47" from="top-approaching" to="right-exit" type="L4-CV"/>
    <trip id="L4-CV-22" depart="143.54" from="left-approaching" to="left-exit" type="L4-CV"/>
    <trip id="L4-CV-23" depart="144.61" from="left-approaching" to="top-exit" type="L4-CV"/>
    <trip id="L4-CV-24" depart="145.68" from="right-approaching" to="left-exit" type="L4-CV"/>
    <trip id="L4-CV-25" depart="146.75" from="top-approaching" to="bottom-exit" type="L4-CV"/>
    <trip id="L4-CV-26" depart="147.82" from="left-approaching" to="right-exit" type="L4-CV"/>
    <trip id="L4-CV-27" depart="148.89" from="bottom-approaching" to="left-exit" type="L4-CV"/>
    <trip id="L4-CV-28" depart="149.96" from="bottom-approaching" to="right-exit" type="L4-CV"/>
    <trip id="L4-CV-29" depart="151.03" from="right-approaching" to="left-exit" type="L4-CV"/>
    <trip id="L4-CV-30" depart="152.10" from="top-approaching" to="left-exit" type="L4-CV"/>
    <trip id="L4-CV-31" depart="153.17" from="right-approaching" to="right-exit" type="L4-CV"/>
    <trip id="L4-CV-32" depart="154.24" from="left-approaching" to="left-exit" type="L4-CV"/>
    <trip id="L4-CV-33" depart="155.31" from="top-approaching" to="top-exit" type="L4-CV"/>
    <trip id="L4-CV-34" depart="156.38" from="left-approaching" to="right-exit" type="L4-CV"/>
    <trip id="L4-CV-35" depart="157.45" from="bottom-approaching" to="right-exit" type="L4-CV"/>
    <trip id="L4-CV-36" depart="158.52" from="right-approaching" to="top-exit" type="L4-CV"/>
    <trip id="L4-CV-37" depart="159.59" from="top-approaching" to="left-exit" type="L4-CV"/>
    <trip id="L4-CV-38" depart="160.66" from="left-approaching" to="right-exit" type="L4-CV"/>
    <trip id="L4-CV-39" depart="161.73" from="bottom-approaching" to="left-exit" type="L4-CV"/>
    <trip id="L4-CV-40" depart="162.80" from="bottom-approaching" to="bottom-exit" type="L4-CV"/>
    <trip id="L4-CV-41" depart="163.87" from="bottom-approaching" to="right-exit" type="L4-CV"/>
    <trip id="L4-CV-42" depart="164.94" from="bottom-approaching" to="left-exit" type="L4-CV"/>
    <trip id="L4-CV-43" depart="166.01" from="left-approaching" to="top-exit" type="L4-CV"/>
    <trip id="L4-CV-44" depart="167.08" from="bottom-approaching" to="left-exit" type="L4-CV"/>
    <trip id="L4-CV-45" depart="168.15" from="left-approaching" to="top-exit" type="L4-CV"/>
    <trip id="L4-CV-46" depart="169.22" from="top-approaching" to="top-exit" type="L4-CV"/>
    <trip id="L4-CV-47" depart="170.29" from="left-approaching" to="left-exit" type="L4-CV"/>
    <trip id="L4-CV-48" depart="171.36" from="left-approaching" to="top-exit" type="L4-CV"/>
    <trip id="L4-CV-49" depart="172.43" from="top-approaching" to="bottom-exit" type="L4-CV"/>
    <trip id="L4-CV-50" depart="173.50" from="bottom-approaching" to="left-exit" type="L4-CV"/>
    <trip id="L4-CV-51" depart="174.57" from="left-approaching" to="left-exit" type="L4-CV"/>
    <trip id="L4-CV-52" depart="175.64" from="right-approaching" to="left-exit" type="L4-CV"/>
    <trip id="L4-CV-53" depart="176.71" from="bottom-approaching" to="left-exit" type="L4-CV"/>
    <trip id="L4-CV-54" depart="177.78" from="left-approaching" to="left-exit" type="L4-CV"/>
    <trip id="L4-CV-55" depart="178.85" from="top-approaching" to="right-exit" type="L4-CV"/>
    <trip id="L4-CV-56" depart="179.92" from="left-approaching" to="right-exit" type="L4-CV"/>
    <trip id="L4-CV-57" depart="180.99" from="right-approaching" to="bottom-exit" type="L4-CV"/>
    <trip id="L4-CV-58" depart="182.06" from="top-approaching" to="right-exit" type="L4-CV"/>
    <trip id="L4-CV-59" depart="183.13" from="top-approaching" to="top-exit" type="L4-CV"/>
    <trip id="L4-CV-60" depart="184.20" from="left-approaching" to="left-exit" type="L4-CV"/>
    <trip id="L4-CV-61" depart="185.27" from="bottom-approaching" to="right-exit" type="L4-CV"/>
    <trip id="L4-CV-62" depart="186.34" from="bottom-approaching" to="bottom-exit" type="L4-CV"/>
    <trip id="L4-CV-63" depart="187.41" from="left-approaching" to="bottom-exit" type="L4-CV"/>
    <trip id="L4-CV-64" depart="188.48" from="left-approaching" to="bottom-exit" type="L4-CV"/>
    <trip id="L4-CV-65" depart="189.55" from="bottom-approaching" to="bottom-exit" type="L4-CV"/>
    <trip id="L4-CV-66" depart="190.62" from="bottom-approaching" to="left-exit" type="L4-CV"/>
    <trip id="L4-CV-67" depart="191.69" from="bottom-approaching" to="top-exit" type="L4-CV"/>
    <trip id="L4-CV-68" depart="192.76" from="right-approaching" to="bottom-exit" type="L4-CV"/>
    <trip id="L4-CV-69" depart="193.83" from="left-approaching" to="left-exit" type="L4-CV"/>
    <trip id="L4-CV-70" depart="194.90" from="left-approaching" to="bottom-exit" type="L4-CV"/>
    <trip id="L4-CV-71" depart="195.97" from="top-approaching" to="top-exit" type="L4-CV"/>
    <trip id="L4-CV-72" depart="197.04" from="left-approaching" to="left-exit" type="L4-CV"/>
    <trip id="L4-CV-73" depart="198.11" from="bottom-approaching" to="bottom-exit" type="L4-CV"/>
    <trip id="L4-CV-74" depart="199.18" from="left-approaching" to="left-exit" type="L4-CV"/>
    <trip id="L4-CV-75" depart="200.25" from="top-approaching" to="bottom-exit" type="L4-CV"/>
    <trip id="L4-CV-76" depart="201.32" from="bottom-approaching" to="top-exit" type="L4-CV"/>
    <trip id="L4-CV-77" depart="202.39" from="left-approaching" to="bottom-exit" type="L4-CV"/>
    <trip id="L4-CV-78" depart="203.46" from="left-approaching" to="bottom-exit" type="L4-CV"/>
    <trip id="L4-CV-79" depart="204.53" from="left-approaching" to="top-exit" type="L4-CV"/>
    <trip id="L4-CV-80" depart="205.60" from="top-approaching" to="right-exit" type="L4-CV"/>
    <trip id="L4-CV-81" depart="206.67" from="left-approaching" to="left-exit" type="L4-CV"/>
    <trip id="L4-CV-82" depart="207.74" from="bottom-approaching" to="right-exit" type="L4-CV"/>
    <trip id="L4-CV-83" depart="208.81" from="left-approaching" to="right-exit" type="L4-CV"/>
    <trip id="L4-CV-84" depart="209.88" from="left-approaching" to="left-exit" type="L4-CV"/>
    <trip id="L4-CV-85" depart="210.95" from="top-approaching" to="top-exit" type="L4-CV"/>
    <trip id="L4-CV-86" depart="212.02" from="top-approaching" to="top-exit" type="L4-CV"/>
    <trip id="L4-CV-87" depart="213.09" from="top-approaching" to="right-exit" type="L4-CV"/>
    <trip id="L4-CV-88" depart="214.16" from="left-approaching" to="left-exit" type="L4-CV"/>
    <trip id="L4-CV-89" depart="215.23" from="left-approaching" to="bottom-exit" type="L4-CV"/>
    <trip id="L4-CV-90" depart="216.30" from="bottom-approaching" to="left-exit" type="L4-CV"/>
    <trip id="L4-CV-91" depart="217.37" from="left-approaching" to="right-exit" type="L4-CV"/>
    <trip id="L4-CV-92" depart="218.44" from="top-approaching" to="left-exit" type="L4-CV"/>
    <trip id="L4-CV-93" depart="219.51" from="top-approaching" to="top-exit" type="L4-CV"/>
    <trip id="L4-CV-94" depart="220.58" from="top-approaching" to="left-exit" type="L4-CV"/>
    <trip id="L4-CV-95" depart="221.65" from="left-approaching" to="left-exit" type="L4-CV"/>
    <trip id="L4-CV-96" depart="222.72" from="bottom-approaching" to="bottom-exit" type="L4-CV"/>
    <trip id="L4-CV-97" depart="223.79" from="right-approaching" to="top-exit" type="L4-CV"/>
    <trip id="L4-CV-98" depart="224.86" from="top-approaching" to="left-exit" type="L4-CV"/>
    <trip id="L4-CV-99" depart="225.93" from="right-approaching" to="top-exit" type="L4-CV"/>
    <trip id="L4-CV-100" depart="227.00" from="bottom-approaching" to="right-exit" type="L4-CV"/>
    <trip id="L4-CV-101" depart="228.07" from="top-approaching" to="right-exit" type="L4-CV"/>
    <trip id="L4-CV-102" depart="229.14" from="right-approaching" to="left-exit" type="L4-CV"/>
    <trip id="L4-CV-103" depart="230.21" from="bottom-approaching" to="right-exit" type="L4-CV"/>
    <trip id="L4-CV-104" depart="231.28" from="left-approaching" to="top-exit" type="L4-CV"/>
    <trip id="L4-CV-105" depart="232.35" from="top-approaching" to="left-exit" type="L4-CV"/>
    <trip id="L4-CV-106" depart="233.42" from="left-approaching" to="top-exit" type="L4-CV"/>
    <trip id="L4-CV-107" depart="234.49" from="right-approaching" to="bottom-exit" type="L4-CV"/>
    <trip id="L4-CV-108" depart="235.56" from="bottom-approaching" to="bottom-exit" type="L4-CV"/>
    <trip id="L4-CV-109" depart="236.63" from="top-approaching" to="top-exit" type="L4-CV"/>
    <trip id="L4-CV-110" depart="237.70" from="bottom-approaching" to="top-exit" type="L4-CV"/>
    <trip id="L4-CV-111" depart="238.77" from="top-approaching" to="right-exit" type="L4-CV"/>
    <trip id="L4-CV-112" depart="239.84" from="left-approaching" to="left-exit" type="L4-CV"/>
    <trip id="L4-CV-113" depart="240.91" from="bottom-approaching" to="bottom-exit" type="L4-CV"/>
    <trip id="L4-CV-114" depart="241.98" from="top-approaching" to="right-exit" type="L4-CV"/>
    <trip id="L4-CV-115" depart="243.05" from="left-approaching" to="top-exit" type="L4-CV"/>
    <trip id="L4-CV-116" depart="244.12" from="left-approaching" to="top-exit" type="L4-CV"/>
    <trip id="L4-CV-117" depart="245.19" from="top-approaching" to="left-exit" type="L4-CV"/>
    <trip id="L4-CV-118" depart="246.26" from="left-approaching" to="left-exit" type="L4-CV"/>
    <trip id="L4-CV-119" depart="247.33" from="left-approaching" to="right-exit" type="L4-CV"/>
    <trip id="L4-CV-120" depart="248.40" from="left-approaching" to="left-exit" type="L4-CV"/>
    <trip id="L4-CV-121" depart="249.47" from="bottom-approaching" to="top-exit" type="L4-CV"/>
    <trip id="L4-CV-122" depart="250.54" from="left-approaching" to="left-exit" type="L4-CV"/>
    <trip id="L4-CV-123" depart="251.61" from="left-approaching" to="top-exit" type="L4-CV"/>
    <trip id="L4-CV-124" depart="252.68" from="left-approaching" to="top-exit" type="L4-CV"/>
    <trip id="L4-CV-125" depart="253.75" from="left-approaching" to="left-exit" type="L4-CV"/>
    <trip id="L4-CV-126" depart="254.82" from="left-approaching" to="bottom-exit" type="L4-CV"/>
    <trip id="L4-CV-127" depart="255.89" from="left-approaching" to="bottom-exit" type="L4-CV"/>
    <trip id="L4-CV-128" depart="256.96" from="bottom-approaching" to="top-exit" type="L4-CV"/>
    <trip id="L4-CV-129" depart="258.03" from="bottom-approaching" to="left-exit" type="L4-CV"/>
    <trip id="L4-CV-130" depart="259.10" from="right-approaching" to="left-exit" type="L4-CV"/>
    <trip id="L4-CV-131" depart="260.17" from="left-approaching" to="left-exit" type="L4-CV"/>
    <trip id="L4-CV-132" depart="261.24" from="left-approaching" to="right-exit" type="L4-CV"/>
    <trip id="L4-CV-133" depart="262.31" from="bottom-approaching" to="left-exit" type="L4-CV"/>
    <trip id="L4-CV-134" depart="263.38" from="left-approaching" to="left-exit" type="L4-CV"/>
    <trip id="L4-CV-135" depart="264.45" from="right-approaching" to="left-exit" type="L4-CV"/>
    <trip id="L4-CV-136" depart="265.52" from="left-approaching" to="right-exit" type="L4-CV"/>
    <trip id="L4-CV-137" depart="266.59" from="top-approaching" to="left-exit" type="L4-CV"/>
    <trip id="L4-CV-138" depart="267.66" from="right-approaching" to="left-exit" type="L4-CV"/>
    <trip id="L4-CV-139" depart="268.73" from="left-approaching" to="right-exit" type="L4-CV"/>
    <trip id="L4-CV-140" depart="269.80" from="left-approaching" to="left-exit" type="L4-CV"/>
    <trip id="L4-CV-141" depart="270.87" from="left-approaching" to="top-exit" type="L4-CV"/>
    <trip id="L4-CV-142" depart="271.94" from="right-approaching" to="top-exit" type="L4-CV"/>
    <trip id="L4-CV-143" depart="273.01" from="top-approaching" to="left-exit" type="L4-CV"/>
    <trip id="L4-CV-144" depart="274.08" from="left-approaching" to="top-exit" type="L4-CV"/>
    <trip id="L4-CV-145" depart="275.15" from="top-approaching" to="bottom-exit" type="L4-CV"/>
    <trip id="L4-CV-146" depart="276.22" from="bottom-approaching" to="left-exit" type="L4-CV"/>
    <trip id="L4-CV-147" depart="277.29" from="bottom-approaching" to="left-exit" type="L4-CV"/>
    <trip id="L4-CV-148" depart="278.36" from="bottom-approaching" to="right-exit" type="L4-CV"/>
    <trip id="L4-CV-149" depart="279.43" from="right-approaching" to="top-exit" type="L4-CV"/>
    <trip id="L4-CV-150" depart="280.50" from="bottom-approaching" to="right-exit" type="L4-CV"/>
    <trip id="L4-CV-151" depart="281.57" from="right-approaching" to="bottom-exit" type="L4-CV"/>
    <trip id="L4-CV-152" depart="282.64" from="top-approaching" to="top-exit" type="L4-CV"/>
    <trip id="L4-CV-153" depart="283.71" from="left-approaching" to="top-exit" type="L4-CV"/>
    <trip id="L4-CV-154" depart="284.78" from="left-approaching" to="left-exit" type="L4-CV"/>
    <trip id="L4-CV-155" depart="285.85" from="top-approaching" to="top-exit" type="L4-CV"/>
    <trip id="L4-CV-156" depart="286.92" from="bottom-approaching" to="left-exit" type="L4-CV"/>
    <trip id="L4-CV-157" depart="287.99" from="left-approaching" to="left-exit" type="L4-CV"/>
    <trip id="L4-CV-158" depart="289.06" from="bottom-approaching" to="left-exit" type="L4-CV"/>
    <trip id="L4-CV-159" depart="290.13" from="right-approaching" to="bottom-exit" type="L4-CV"/>
    <trip id="L4-CV-160" depart="291.20" from="left-approaching" to="left-exit" type="L4-CV"/>
    <trip id="L4-CV-161" depart="292.27" from="bottom-approaching" to="left-exit" type="L4-CV"/>
    <trip id="L4-CV-162" depart="293.34" from="right-approaching" to="left-exit" type="L4-CV"/>
    <trip id="L4-CV-163" depart="294.41" from="bottom-approaching" to="top-exit" type="L4-CV"/>
    <trip id="L4-CV-164" depart="295.48" from="right-approaching" to="top-exit" type="L4-CV"/>
    <trip id="L4-CV-165" depart="296.55" from="bottom-approaching" to="left-exit" type="L4-CV"/>
    <trip id="L4-CV-166" depart="297.62" from="bottom-approaching" to="right-exit" type="L4-CV"/>
    <trip id="L4-CV-167" depart="298.69" from="left-approaching" to="bottom-exit" type="L4-CV"/>
    <trip id="L4-CV-168" depart="299.76" from="left-approaching" to="top-exit" type="L4-CV"/>
    <trip id="L4-CV-169" depart="300.83" from="top-approaching" to="left-exit" type="L4-CV"/>
    <trip id="L4-CV-170" depart="301.90" from="bottom-approaching" to="top-exit" type="L4-CV"/>
    <trip id="L4-CV-171" depart="302.97" from="left-approaching" to="right-exit" type="L4-CV"/>
    <trip id="L4-CV-172" depart="304.04" from="bottom-approaching" to="bottom-exit" type="L4-CV"/>
    <trip id="L4-CV-173" depart="305.11" from="right-approaching" to="left-exit" type="L4-CV"/>
    <trip id="L4-CV-174" depart="306.18" from="bottom-approaching" to="top-exit" type="L4-CV"/>
    <trip id="L4-CV-175" depart="307.25" from="right-approaching" to="top-exit" type="L4-CV"/>
    <trip id="L4-CV-176" depart="308.32" from="bottom-approaching" to="top-exit" type="L4-CV"/>
    <trip id="L4-CV-177" depart="309.39" from="bottom-approaching" to="top-exit" type="L4-CV"/>
    <trip id="L4-CV-178" depart="310.46" from="left-approaching" to="left-exit" type="L4-CV"/>
    <trip id="L4-CV-179" depart="311.53" from="left-approaching" to="top-exit" type="L4-CV"/>
    <trip id="L4-CV-180" depart="312.60" from="left-approaching" to="bottom-exit" type="L4-CV"/>
    <trip id="L4-CV-181" depart="313.67" from="left-approaching" to="left-exit" type="L4-CV"/>
    <trip id="L4-CV-182" depart="314.74" from="bottom-approaching" to="bottom-exit" type="L4-CV"/>
    <trip id="L4-CV-183" depart="315.81" from="bottom-approaching" to="bottom-exit" type="L4-CV"/>
    <trip id="L4-CV-184" depart="316.88" from="left-approaching" to="left-exit" type="L4-CV"/>
    <trip id="L4-CV-185" depart="317.95" from="right-approaching" to="left-exit" type="L4-CV"/>
    <trip id="L4-CV-186" depart="319.02" from="left-approaching" to="bottom-exit" type="L4-CV"/>
    <trip id="L4-CV-187" depart="320.09" from="left-approaching" to="bottom-exit" type="L4-CV"/>
    <trip id="L4-CV-188" depart="321.16" from="left-approaching" to="bottom-exit" type="L4-CV"/>
    <trip id="L4-CV-189" depart="322.23" from="right-approaching" to="left-exit" type="L4-CV"/>
    <trip id="L4-CV-190" depart="323.30" from="bottom-approaching" to="left-exit" type="L4-CV"/>
    <trip id="L4-CV-191" depart="324.37" from="top-approaching" to="bottom-exit" type="L4-CV"/>
    <trip id="L4-CV-192" depart="325.44" from="top-approaching" to="left-exit" type="L4-CV"/>
    <trip id="L4-CV-193" depart="326.51" from="left-approaching" to="top-exit" type="L4-CV"/>
    <trip id="L4-CV-194" depart="327.58" from="left-approaching" to="left-exit" type="L4-CV"/>
    <trip id="L4-CV-195" depart="328.65" from="right-approaching" to="top-exit" type="L4-CV"/>
    <trip id="L4-CV-196" depart="329.72" from="left-approaching" to="top-exit" type="L4-CV"/>
    <trip id="L4-CV-197" depart="330.79" from="right-approaching" to="right-exit" type="L4-CV"/>
    <trip id="L4-CV-198" depart="331.86" from="left-approaching" to="left-exit" type="L4-CV"/>
    <trip id="L4-CV-199" depart="332.93" from="bottom-approaching" to="bottom-exit" type="L4-CV"/>
    <trip id="L4-CV-200" depart="334.00" from="bottom-approaching" to="right-exit" type="L4-CV"/>
    <trip id="L4-CV-201" depart="335.07" from="left-approaching" to="bottom-exit" type="L4-CV"/>
    <trip id="L4-CV-202" depart="336.14" from="bottom-approaching" to="top-exit" type="L4-CV"/>
    <trip id="L4-CV-203" depart="337.21" from="top-approaching" to="right-exit" type="L4-CV"/>
    <trip id="L4-CV-204" depart="338.28" from="left-approaching" to="left-exit" type="L4-CV"/>
    <trip id="L4-CV-205" depart="339.35" from="left-approaching" to="left-exit" type="L4-CV"/>
    <trip id="L4-CV-206" depart="340.42" from="bottom-approaching" to="left-exit" type="L4-CV"/>
    <trip id="L4-CV-207" depart="341.49" from="left-approaching" to="top-exit" type="L4-CV"/>
    <trip id="L4-CV-208" depart="342.56" from="top-approaching" to="left-exit" type="L4-CV"/>
    <trip id="L4-CV-209" depart="343.63" from="left-approaching" to="top-exit" type="L4-CV"/>
    <trip id="L4-CV-210" depart="344.70" from="left-approaching" to="left-exit" type="L4-CV"/>
    <trip id="L4-CV-211" depart="345.77" from="bottom-approaching" to="left-exit" type="L4-CV"/>
    <trip id="L4-CV-212" depart="346.84" from="left-approaching" to="left-exit" type="L4-CV"/>
    <trip id="L4-CV-213" depart="347.91" from="bottom-approaching" to="left-exit" type="L4-CV"/>
    <trip id="L4-CV-214" depart="348.98" from="bottom-approaching" to="left-exit" type="L4-CV"/>
    <trip id="L4-CV-215" depart="350.05" from="bottom-approaching" to="left-exit" type="L4-CV"/>
    <trip id="L4-CV-216" depart="351.12" from="bottom-approaching" to="bottom-exit" type="L4-CV"/>
    <trip id="L4-CV-217" depart="352.19" from="left-approaching" to="left-exit" type="L4-CV"/>
    <trip id="L4-CV-218" depart="353.26" from="right-approaching" to="left-exit" type="L4-CV"/>
    <trip id="L4-CV-219" depart="354.33" from="right-approaching" to="right-exit" type="L4-CV"/>
    <trip id="L4-CV-220" depart="355.40" from="right-approaching" to="top-exit" type="L4-CV"/>
    <trip id="L4-CV-221" depart="356.47" from="left-approaching" to="left-exit" type="L4-CV"/>
    <trip id="L4-CV-222" depart="357.54" from="top-approaching" to="bottom-exit" type="L4-CV"/>
    <trip id="L4-CV-223" depart="358.61" from="right-approaching" to="right-exit" type="L4-CV"/>
    <trip id="L4-CV-224" depart="359.68" from="bottom-approaching" to="top-exit" type="L4-CV"/>
    <trip id="L4-CV-225" depart="360.75" from="top-approaching" to="right-exit" type="L4-CV"/>
    <trip id="L4-CV-226" depart="361.82" from="right-approaching" to="top-exit" type="L4-CV"/>
    <trip id="L4-CV-227" depart="362.89" from="bottom-approaching" to="left-exit" type="L4-CV"/>
    <trip id="L4-CV-228" depart="363.96" from="left-approaching" to="top-exit" type="L4-CV"/>
    <trip id="L4-CV-229" depart="365.03" from="top-approaching" to="top-exit" type="L4-CV"/>
    <trip id="L4-CV-230" depart="366.10" from="left-approaching" to="top-exit" type="L4-CV"/>
    <trip id="L4-CV-231" depart="367.17" from="right-approaching" to="right-exit" type="L4-CV"/>
    <trip id="L4-CV-232" depart="368.24" from="left-approaching" to="bottom-exit" type="L4-CV"/>
    <trip id="L4-CV-233" depart="369.31" from="bottom-approaching" to="left-exit" type="L4-CV"/>
    <trip id="L4-CV-234" depart="370.38" from="bottom-approaching" to="top-exit" type="L4-CV"/>
    <trip id="L4-CV-235" depart="371.45" from="left-approaching" to="right-exit" type="L4-CV"/>
    <trip id="L4-CV-236" depart="372.52" from="right-approaching" to="right-exit" type="L4-CV"/>
    <trip id="L4-CV-237" depart="373.59" from="left-approaching" to="bottom-exit" type="L4-CV"/>
    <trip id="L4-CV-238" depart="374.66" from="top-approaching" to="right-exit" type="L4-CV"/>
    <trip id="L4-CV-239" depart="375.73" from="left-approaching" to="left-exit" type="L4-CV"/>
    <trip id="L4-CV-240" depart="376.80" from="right-approaching" to="bottom-exit" type="L4-CV"/>
    <trip id="L4-CV-241" depart="377.87" from="right-approaching" to="left-exit" type="L4-CV"/>
    <trip id="L4-CV-242" depart="378.94" from="bottom-approaching" to="left-exit" type="L4-CV"/>
    <trip id="L4-CV-243" depart="380.01" from="right-approaching" to="bottom-exit" type="L4-CV"/>
    <trip id="L4-CV-244" depart="381.08" from="right-approaching" to="top-exit" type="L4-CV"/>
    <trip id="L4-CV-245" depart="382.15" from="left-approaching" to="left-exit" type="L4-CV"/>
    <trip id="L4-CV-246" depart="383.22" from="left-approaching" to="right-exit" type="L4-CV"/>
    <trip id="L4-CV-247" depart="384.29" from="right-approaching" to="right-exit" type="L4-CV"/>
    <trip id="L4-CV-248" depart="385.36" from="right-approaching" to="bottom-exit" type="L4-CV"/>
    <trip id="L4-CV-249" depart="386.43" from="bottom-approaching" to="left-exit" type="L4-CV"/>
    <trip id="L4-CV-250" depart="387.50" from="right-approaching" to="left-exit" type="L4-CV"/>
    <trip id="L4-CV-251" depart="388.57" from="left-approaching" to="bottom-exit" type="L4-CV"/>
    <trip id="L4-CV-252" depart="389.64" from="bottom-approaching" to="left-exit" type="L4-CV"/>
    <trip id="L4-CV-253" depart="390.71" from="right-approaching" to="right-exit" type="L4-CV"/>
    <trip id="L4-CV-254" depart="391.78" from="right-approaching" to="left-exit" type="L4-CV"/>
    <trip id="L4-CV-255" depart="392.85" from="left-approaching" to="left-exit" type="L4-CV"/>
    <trip id="L4-CV-256" depart="393.92" from="left-approaching" to="bottom-exit" type="L4-CV"/>
    <trip id="L4-CV-257" depart="394.99" from="top-approaching" to="bottom-exit" type="L4-CV"/>
    <trip id="L4-CV-258" depart="396.06" from="top-approaching" to="top-exit" type="L4-CV"/>
    <trip id="L4-CV-259" depart="397.13" from="bottom-approaching" to="left-exit" type="L4-CV"/>
    <trip id="L4-CV-260" depart="398.20" from="top-approaching" to="top-exit" type="L4-CV"/>
    <trip id="L4-CV-261" depart="399.27" from="left-approaching" to="left-exit" type="L4-CV"/>
    <trip id="L4-CV-262" depart="400.34" from="left-approaching" to="top-exit" type="L4-CV"/>
    <trip id="L4-CV-263" depart="401.41" from="left-approaching" to="left-exit" type="L4-CV"/>
    <trip id="L4-CV-264" depart="402.48" from="bottom-approaching" to="left-exit" type="L4-CV"/>
    <trip id="L4-CV-265" depart="403.55" from="top-approaching" to="bottom-exit" type="L4-CV"/>
    <trip id="L4-CV-266" depart="404.62" from="top-approaching" to="left-exit" type="L4-CV"/>
    <trip id="L4-CV-267" depart="405.69" from="top-approaching" to="right-exit" type="L4-CV"/>
    <trip id="L4-CV-268" depart="406.76" from="left-approaching" to="top-exit" type="L4-CV"/>
    <trip id="L4-CV-269" depart="407.83" from="left-approaching" to="bottom-exit" type="L4-CV"/>
    <trip id="L4-CV-270" depart="408.90" from="bottom-approaching" to="left-exit" type="L4-CV"/>
    <trip id="L4-CV-271" depart="409.97" from="left-approaching" to="left-exit" type="L4-CV"/>
    <trip id="L4-CV-272" depart="411.04" from="bottom-approaching" to="left-exit" type="L4-CV"/>
    <trip id="L4-CV-273" depart="412.11" from="left-approaching" to="top-exit" type="L4-CV"/>
    <trip id="L4-CV-274" depart="413.18" from="bottom-approaching" to="right-exit" type="L4-CV"/>
    <trip id="L4-CV-275" depart="414.25" from="top-approaching" to="bottom-exit" type="L4-CV"/>
    <trip id="L4-CV-276" depart="415.32" from="top-approaching" to="right-exit" type="L4-CV"/>
    <trip id="L4-CV-277" depart="416.39" from="top-approaching" to="left-exit" type="L4-CV"/>
    <trip id="L4-CV-278" depart="417.46" from="left-approaching" to="left-exit" type="L4-CV"/>
    <trip id="L4-CV-279" depart="418.53" from="top-approaching" to="right-exit" type="L4-CV"/>
    <trip id="L4-CV-280" depart="419.60" from="left-approaching" to="left-exit" type="L4-CV"/>
    <trip id="L4-CV-281" depart="420.67" from="left-approaching" to="bottom-exit" type="L4-CV"/>
    <trip id="L4-CV-282" depart="421.74" from="bottom-approaching" to="top-exit" type="L4-CV"/>
    <trip id="L4-CV-283" depart="422.81" from="left-approaching" to="top-exit" type="L4-CV"/>
    <trip id="L4-CV-284" depart="423.88" from="left-approaching" to="left-exit" type="L4-CV"/>
    <trip id="L4-CV-285" depart="424.95" from="left-approaching" to="bottom-exit" type="L4-CV"/>
    <trip id="L4-CV-286" depart="426.02" from="left-approaching" to="top-exit" type="L4-CV"/>
    <trip id="L4-CV-287" depart="427.09" from="top-approaching" to="top-exit" type="L4-CV"/>
    <trip id="L4-CV-288" depart="428.16" from="right-approaching" to="top-exit" type="L4-CV"/>
    <trip id="L4-CV-289" depart="429.23" from="top-approaching" to="left-exit" type="L4-CV"/>
    <trip id="L4-CV-290" depart="430.30" from="right-approaching" to="bottom-exit" type="L4-CV"/>
    <trip id="L4-CV-291" depart="431.37" from="right-approaching" to="left-exit" type="L4-CV"/>
    <trip id="L4-CV-292" depart="432.44" from="right-approaching" to="right-exit" type="L4-CV"/>
    <trip id="L4-CV-293" depart="433.51" from="left-approaching" to="bottom-exit" type="L4-CV"/>
    <trip id="L4-CV-294" depart="434.58" from="top-approaching" to="bottom-exit" type="L4-CV"/>
    <trip id="L4-CV-295" depart="435.65" from="left-approaching" to="left-exit" type="L4-CV"/>
    <trip id="L4-CV-296" depart="436.72" from="left-approaching" to="right-exit" type="L4-CV"/>
    <trip id="L4-CV-297" depart="437.79" from="top-approaching" to="left-exit" type="L4-CV"/>
    <trip id="L4-CV-298" depart="438.86" from="right-approaching" to="left-exit" type="L4-CV"/>
    <trip id="L4-CV-299" depart="439.93" from="left-approaching" to="left-exit" type="L4-CV"/>
    <trip id="L4-CV-300" depart="441.00" from="bottom-approaching" to="bottom-exit" type="L4-CV"/>
    <trip id="L4-CV-301" depart="442.07" from="left-approaching" to="top-exit" type="L4-CV"/>
    <trip id="L4-CV-302" depart="443.14" from="left-approaching" to="left-exit" type="L4-CV"/>
    <trip id="L4-CV-303" depart="444.21" from="top-approaching" to="top-exit" type="L4-CV"/>
    <trip id="L4-CV-304" depart="445.28" from="left-approaching" to="bottom-exit" type="L4-CV"/>
    <trip id="L4-CV-305" depart="446.35" from="bottom-approaching" to="bottom-exit" type="L4-CV"/>
    <trip id="L4-CV-306" depart="447.42" from="left-approaching" to="bottom-exit" type="L4-CV"/>
    <trip id="L4-CV-307" depart="448.49" from="left-approaching" to="left-exit" type="L4-CV"/>
    <trip id="L4-CV-308" depart="449.56" from="left-approaching" to="top-exit" type="L4-CV"/>