<?xml version="1.0" encoding="UTF-8"?>
<!-- generated on 2021-03-17 14:51:41.716102 by $Id$ v1_8_0+0044-4820708f3d
  options: -n Roadworks/RoadworksIntersection.net.xml <doubleminus>fringe-factor 40 -r Roadworks/RealTMSPenetration3/Route-Files/L0-HDV-Route.rou.xml <doubleminus>trip-attributes=type="L0-HDV-" -l <doubleminus>prefix L0-HDV- <doubleminus>seed 5 -p 8.4
-->
<routes xmlns:xsi="http://www.w3.org/2001/XMLSchema-instance" xsi:noNamespaceSchemaLocation="http://sumo.dlr.de/xsd/routes_file.xsd">
    <trip id="L0-HDV-0" depart="0.00" from="right-approaching" to="right-exit" type="L0-HDV-"/>
    <trip id="L0-HDV-1" depart="8.40" from="top-approaching" to="top-exit" type="L0-HDV-"/>
    <trip id="L0-HDV-2" depart="16.80" from="right-approaching" to="top-exit" type="L0-HDV-"/>
    <trip id="L0-HDV-3" depart="25.20" from="bottom-approaching" to="left-exit" type="L0-HDV-"/>
    <trip id="L0-HDV-4" depart="33.60" from="top-approaching" to="right-exit" type="L0-HDV-"/>
    <trip id="L0-HDV-5" depart="42.00" from="top-approaching" to="bottom-exit" type="L0-HDV-"/>
    <trip id="L0-HDV-6" depart="50.40" from="left-long-approaching" to="bottom-exit" type="L0-HDV-"/>
    <trip id="L0-HDV-7" depart="58.80" from="right-approaching" to="right-exit" type="L0-HDV-"/>
    <trip id="L0-HDV-8" depart="67.20" from="bottom-approaching" to="bottom-exit" type="L0-HDV-"/>
    <trip id="L0-HDV-9" depart="75.60" from="left-long-approaching" to="top-exit" type="L0-HDV-"/>
    <trip id="L0-HDV-10" depart="84.00" from="top-approaching" to="bottom-exit" type="L0-HDV-"/>
    <trip id="L0-HDV-11" depart="92.40" from="top-approaching" to="bottom-exit" type="L0-HDV-"/>
    <trip id="L0-HDV-12" depart="100.80" from="right-approaching" to="bottom-exit" type="L0-HDV-"/>
    <trip id="L0-HDV-13" depart="109.20" from="bottom-approaching" to="top-exit" type="L0-HDV-"/>
    <trip id="L0-HDV-14" depart="117.60" from="bottom-approaching" to="bottom-exit" type="L0-HDV-"/>
    <trip id="L0-HDV-15" depart="126.00" from="top-approaching" to="top-exit" type="L0-HDV-"/>
    <trip id="L0-HDV-16" depart="134.40" from="left-long-approaching" to="top-exit" type="L0-HDV-"/>
    <trip id="L0-HDV-17" depart="142.80" from="right-approaching" to="right-exit" type="L0-HDV-"/>
    <trip id="L0-HDV-18" depart="151.20" from="bottom-approaching" to="top-exit" type="L0-HDV-"/>
    <trip id="L0-HDV-19" depart="159.60" from="right-approaching" to="top-exit" type="L0-HDV-"/>
    <trip id="L0-HDV-20" depart="168.00" from="top-approaching" to="left-exit" type="L0-HDV-"/>
    <trip id="L0-HDV-21" depart="176.40" from="left-long-approaching" to="bottom-exit" type="L0-HDV-"/>
    <trip id="L0-HDV-22" depart="184.80" from="bottom-approaching" to="bottom-exit" type="L0-HDV-"/>
    <trip id="L0-HDV-23" depart="193.20" from="left-long-approaching" to="right-exit" type="L0-HDV-"/>
    <trip id="L0-HDV-24" depart="201.60" from="bottom-approaching" to="right-exit" type="L0-HDV-"/>
    <trip id="L0-HDV-25" depart="210.00" from="left-long-approaching" to="left-exit" type="L0-HDV-"/>
    <trip id="L0-HDV-26" depart="218.40" from="top-approaching" to="left-exit" type="L0-HDV-"/>
    <trip id="L0-HDV-27" depart="226.80" from="left-long-approaching" to="left-exit" type="L0-HDV-"/>
    <trip id="L0-HDV-28" depart="235.20" from="right-approaching" to="bottom-exit" type="L0-HDV-"/>
    <trip id="L0-HDV-29" depart="243.60" from="top-approaching" to="bottom-exit" type="L0-HDV-"/>
    <trip id="L0-HDV-30" depart="252.00" from="right-approaching" to="top-exit" type="L0-HDV-"/>
    <trip id="L0-HDV-31" depart="260.40" from="bottom-approaching" to="top-exit" type="L0-HDV-"/>
    <trip id="L0-HDV-32" depart="268.80" from="left-long-approaching" to="right-exit" type="L0-HDV-"/>
    <trip id="L0-HDV-33" depart="277.20" from="bottom-approaching" to="bottom-exit" type="L0-HDV-"/>
    <trip id="L0-HDV-34" depart="285.60" from="bottom-approaching" to="top-exit" type="L0-HDV-"/>
    <trip id="L0-HDV-35" depart="294.00" from="bottom-approaching" to="top-exit" type="L0-HDV-"/>
    <trip id="L0-HDV-36" depart="302.40" from="top-approaching" to="top-exit" type="L0-HDV-"/>
    <trip id="L0-HDV-37" depart="310.80" from="left-long-approaching" to="left-exit" type="L0-HDV-"/>
    <trip id="L0-HDV-38" depart="319.20" from="right-approaching" to="top-exit" type="L0-HDV-"/>
    <trip id="L0-HDV-39" depart="327.60" from="bottom-approaching" to="right-exit" type="L0-HDV-"/>
    <trip id="L0-HDV-40" depart="336.00" from="top-approaching" to="top-exit" type="L0-HDV-"/>
    <trip id="L0-HDV-41" depart="344.40" from="bottom-approaching" to="top-exit" type="L0-HDV-"/>
    <trip id="L0-HDV-42" depart="352.80" from="bottom-approaching" to="left-exit" type="L0-HDV-"/>
    <trip id="L0-HDV-43" depart="361.20" from="right-approaching" to="top-exit" type="L0-HDV-"/>
    <trip id="L0-HDV-44" depart="369.60" from="left-long-approaching" to="top-exit" type="L0-HDV-"/>
    <trip id="L0-HDV-45" depart="378.00" from="right-approaching" to="left-exit" type="L0-HDV-"/>
    <trip id="L0-HDV-46" depart="386.40" from="left-long-approaching" to="bottom-exit" type="L0-HDV-"/>
    <trip id="L0-HDV-47" depart="394.80" from="bottom-approaching" to="bottom-exit" type="L0-HDV-"/>
    <trip id="L0-HDV-48" depart="403.20" from="right-approaching" to="top-exit" type="L0-HDV-"/>
    <trip id="L0-HDV-49" depart="411.60" from="bottom-approaching" to="bottom-exit" type="L0-HDV-"/>
    <trip id="L0-HDV-50" depart="420.00" from="top-approaching" to="right-exit" type="L0-HDV-"/>
    <trip id="L0-HDV-51" depart="428.40" from="left-long-approaching" to="bottom-exit" type="L0-HDV-"/>
    <trip id="L0-HDV-52" depart="436.80" from="right-approaching" to="top-exit" type="L0-HDV-"/>
    <trip id="L0-HDV-53" depart="445.20" from="left-long-approaching" to="left-exit" type="L0-HDV-"/>
    <trip id="L0-HDV-54" depart="453.60" from="bottom-approaching" to="top-exit" type="L0-HDV-"/>
    <trip id="L0-HDV-55" depart="462.00" from="bottom-approaching" to="left-exit" type="L0-HDV-"/>
    <trip id="L0-HDV-56" depart="470.40" from="top-approaching" to="bottom-exit" type="L0-HDV-"/>
    <trip id="L0-HDV-57" depart="478.80" from="right-approaching" to="top-exit" type="L0-HDV-"/>
    <trip id="L0-HDV-58" depart="487.20" from="right-approaching" to="top-exit" type="L0-HDV-"/>
    <trip id="L0-HDV-59" depart="495.60" from="bottom-approaching" to="left-exit" type="L0-HDV-"/>
    <trip id="L0-HDV-60" depart="504.00" from="bottom-approaching" to="top-exit" type="L0-HDV-"/>
    <trip id="L0-HDV-61" depart="512.40" from="left-long-approaching" to="left-exit" type="L0-HDV-"/>
    <trip id="L0-HDV-62" depart="520.80" from="top-approaching" to="top-exit" type="L0-HDV-"/>
    <trip id="L0-HDV-63" depart="529.20" from="top-approaching" to="left-exit" type="L0-HDV-"/>
    <trip id="L0-HDV-64" depart="537.60" from="left-long-approaching" to="right-exit" type="L0-HDV-"/>
    <trip id="L0-HDV-65" depart="546.00" from="left-long-approaching" to="left-exit" type="L0-HDV-"/>
    <trip id="L0-HDV-66" depart="554.40" from="left-long-approaching" to="bottom-exit" type="L0-HDV-"/>
    <trip id="L0-HDV-67" depart="562.80" from="left-long-approaching" to="top-exit" type="L0-HDV-"/>
    <trip id="L0-HDV-68" depart="571.20" from="top-approaching" to="right-exit" type="L0-HDV-"/>
    <trip id="L0-HDV-69" depart="579.60" from="preparation" to="left-exit" type="L0-HDV-"/>
    <trip id="L0-HDV-70" depart="588.00" from="bottom-approaching" to="left-exit" type="L0-HDV-"/>
    <trip id="L0-HDV-71" depart="596.40" from="top-approaching" to="top-exit" type="L0-HDV-"/>
    <trip id="L0-HDV-72" depart="604.80" from="left-long-approaching" to="top-exit" type="L0-HDV-"/>
    <trip id="L0-HDV-73" depart="613.20" from="top-approaching" to="right-exit" type="L0-HDV-"/>
    <trip id="L0-HDV-74" depart="621.60" from="right-approaching" to="top-exit" type="L0-HDV-"/>
    <trip id="L0-HDV-75" depart="630.00" from="left-long-approaching" to="right-exit" type="L0-HDV-"/>
    <trip id="L0-HDV-76" depart="638.40" from="left-long-approaching" to="left-exit" type="L0-HDV-"/>
    <trip id="L0-HDV-77" depart="646.80" from="top-approaching" to="right-exit" type="L0-HDV-"/>
    <trip id="L0-HDV-78" depart="655.20" from="left-long-approaching" to="top-exit" type="L0-HDV-"/>
    <trip id="L0-HDV-79" depart="663.60" from="right-approaching" to="right-exit" type="L0-HDV-"/>
    <trip id="L0-HDV-80" depart="672.00" from="bottom-approaching" to="right-exit" type="L0-HDV-"/>
    <trip id="L0-HDV-81" depart="680.40" from="left-long-approaching" to="right-exit" type="L0-HDV-"/>
    <trip id="L0-HDV-82" depart="688.80" from="left-long-approaching" to="top-exit" type="L0-HDV-"/>
    <trip id="L0-HDV-83" depart="697.20" from="right-approaching" to="top-exit" type="L0-HDV-"/>
    <trip id="L0-HDV-84" depart="705.60" from="left-long-approaching" to="right-exit" type="L0-HDV-"/>
    <trip id="L0-HDV-85" depart="714.00" from="right-approaching" to="top-exit" type="L0-HDV-"/>
    <trip id="L0-HDV-86" depart="722.40" from="left-long-approaching" to="top-exit" type="L0-HDV-"/>
    <trip id="L0-HDV-87" depart="730.80" from="top-approaching" to="right-exit" type="L0-HDV-"/>
    <trip id="L0-HDV-88" depart="739.20" from="top-approaching" to="top-exit" type="L0-HDV-"/>
    <trip id="L0-HDV-89" depart="747.60" from="right-approaching" to="right-exit" type="L0-HDV-"/>
    <trip id="L0-HDV-90" depart="756.00" from="bottom-approaching" to="top-exit" type="L0-HDV-"/>
    <trip id="L0-HDV-91" depart="764.40" from="top-approaching" to="left-exit" type="L0-HDV-"/>
    <trip id="L0-HDV-92" depart="772.80" from="right-approaching" to="right-exit" type="L0-HDV-"/>
    <trip id="L0-HDV-93" depart="781.20" from="right-approaching" to="bottom-exit" type="L0-HDV-"/>
    <trip id="L0-HDV-94" depart="789.60" from="top-approaching" to="right-exit" type="L0-HDV-"/>
    <trip id="L0-HDV-95" depart="798.00" from="right-approaching" to="left-exit" type="L0-HDV-"/>
    <trip id="L0-HDV-96" depart="806.40" from="right-approaching" to="top-exit" type="L0-HDV-"/>
    <trip id="L0-HDV-97" depart="814.80" from="right-approaching" to="right-exit" type="L0-HDV-"/>
    <trip id="L0-HDV-98" depart="823.20" from="bottom-approaching" to="bottom-exit" type="L0-HDV-"/>
    <trip id="L0-HDV-99" depart="831.60" from="left-long-approaching" to="right-exit" type="L0-HDV-"/>
    <trip id="L0-HDV-100" depart="840.00" from="bottom-approaching" to="right-exit" type="L0-HDV-"/>
    <trip id="L0-HDV-101" depart="848.40" from="right-approaching" to="bottom-exit" type="L0-HDV-"/>
    <trip id="L0-HDV-102" depart="856.80" from="left-long-approaching" to="bottom-exit" type="L0-HDV-"/>
    <trip id="L0-HDV-103" depart="865.20" from="bottom-approaching" to="bottom-exit" type="L0-HDV-"/>
    <trip id="L0-HDV-104" depart="873.60" from="left-long-approaching" to="bottom-exit" type="L0-HDV-"/>
    <trip id="L0-HDV-105" depart="882.00" from="bottom-approaching" to="bottom-exit" type="L0-HDV-"/>
    <trip id="L0-HDV-106" depart="890.40" from="left-long-approaching" to="left-exit" type="L0-HDV-"/>
    <trip id="L0-HDV-107" depart="898.80" from="right-approaching" to="right-exit" type="L0-HDV-"/>
    <trip id="L0-HDV-108" depart="907.20" from="bottom-approaching" to="top-exit" type="L0-HDV-"/>
    <trip id="L0-HDV-109" depart="915.60" from="bottom-approaching" to="left-exit" type="L0-HDV-"/>
    <trip id="L0-HDV-110" depart="924.00" from="left-long-approaching" to="left-exit" type="L0-HDV-"/>
    <trip id="L0-HDV-111" depart="932.40" from="bottom-approaching" to="top-exit" type="L0-HDV-"/>
    <trip id="L0-HDV-112" depart="940.80" from="left-long-approaching" to="bottom-exit" type="L0-HDV-"/>
    <trip id="L0-HDV-113" depart="949.20" from="right-approaching" to="bottom-exit" type="L0-HDV-"/>
    <trip id="L0-HDV-114" depart="957.60" from="right-approaching" to="left-exit" type="L0-HDV-"/>
    <trip id="L0-HDV-115" depart="966.00" from="right-approaching" to="top-exit" type="L0-HDV-"/>
    <trip id="L0-HDV-116" depart="974.40" from="top-approaching" to="left-exit" type="L0-HDV-"/>
    <trip id="L0-HDV-117" depart="982.80" from="top-approaching" to="right-exit" type="L0-HDV-"/>
    <trip id="L0-HDV-118" depart="991.20" from="left-long-approaching" to="bottom-exit" type="L0-HDV-"/>
    <trip id="L0-HDV-119" depart="999.60" from="right-approaching" to="right-exit" type="L0-HDV-"/>
    <trip id="L0-HDV-120" depart="1008.00" from="top-approaching" to="top-exit" type="L0-HDV-"/>
    <trip id="L0-HDV-121" depart="1016.40" from="right-approaching" to="left-exit" type="L0-HDV-"/>
    <trip id="L0-HDV-122" depart="1024.80" from="top-approaching" to="bottom-exit" type="L0-HDV-"/>
    <trip id="L0-HDV-123" depart="1033.20" from="bottom-approaching" to="right-exit" type="L0-HDV-"/>
    <trip id="L0-HDV-124" depart="1041.60" from="right-approaching" to="bottom-exit" type="L0-HDV-"/>
    <trip id="L0-HDV-125" depart="1050.00" from="right-approaching" to="top-exit" type="L0-HDV-"/>
    <trip id="L0-HDV-126" depart="1058.40" from="left-long-approaching" to="left-exit" type="L0-HDV-"/>
    <trip id="L0-HDV-127" depart="1066.80" from="bottom-approaching" to="left-exit" type="L0-HDV-"/>
    <trip id="L0-HDV-128" depart="1075.20" from="top-approaching" to="left-exit" type="L0-HDV-"/>
    <trip id="L0-HDV-129" depart="1083.60" from="top-approaching" to="top-exit" type="L0-HDV-"/>
    <trip id="L0-HDV-130" depart="1092.00" from="right-approaching" to="left-exit" type="L0-HDV-"/>
    <trip id="L0-HDV-131" depart="1100.40" from="top-approaching" to="left-exit" type="L0-HDV-"/>
    <trip id="L0-HDV-132" depart="1108.80" from="left-long-approaching" to="left-exit" type="L0-HDV-"/>
    <trip id="L0-HDV-133" depart="1117.20" from="top-approaching" to="left-exit" type="L0-HDV-"/>
    <trip id="L0-HDV-134" depart="1125.60" from="left-long-approaching" to="left-exit" type="L0-HDV-"/>
    <trip id="L0-HDV-135" depart="1134.00" from="bottom-approaching" to="right-exit" type="L0-HDV-"/>
    <trip id="L0-HDV-136" depart="1142.40" from="left-long-approaching" to="left-exit" type="L0-HDV-"/>
    <trip id="L0-HDV-137" depart="1150.80" from="top-approaching" to="top-exit" type="L0-HDV-"/>
    <trip id="L0-HDV-138" depart="1159.20" from="bottom-approaching" to="right-exit" type="L0-HDV-"/>
    <trip id="L0-HDV-139" depart="1167.60" from="left-long-approaching" to="top-exit" type="L0-HDV-"/>
    <trip id="L0-HDV-140" depart="1176.00" from="top-approaching" to="bottom-exit" type="L0-HDV-"/>
    <trip id="L0-HDV-141" depart="1184.40" from="left-long-approaching" to="bottom-exit" type="L0-HDV-"/>
    <trip id="L0-HDV-142" depart="1192.80" from="top-approaching" to="left-exit" type="L0-HDV-"/>
    <trip id="L0-HDV-143" depart="1201.20" from="right-approaching" to="left-exit" type="L0-HDV-"/>
    <trip id="L0-HDV-144" depart="1209.60" from="right-approaching" to="right-exit" type="L0-HDV-"/>
    <trip id="L0-HDV-145" depart="1218.00" from="right-approaching" to="bottom-exit" type="L0-HDV-"/>
    <trip id="L0-HDV-146" depart="1226.40" from="top-approaching" to="left-exit" type="L0-HDV-"/>
    <trip id="L0-HDV-147" depart="1234.80" from="right-approaching" to="left-exit" type="L0-HDV-"/>
    <trip id="L0-HDV-148" depart="1243.20" from="left-long-approaching" to="right-exit" type="L0-HDV-"/>
    <trip id="L0-HDV-149" depart="1251.60" from="left-long-approaching" to="left-exit" type="L0-HDV-"/>
    <trip id="L0-HDV-150" depart="1260.00" from="right-approaching" to="right-exit" type="L0-HDV-"/>
    <trip id="L0-HDV-151" depart="1268.40" from="bottom-approaching" to="left-exit" type="L0-HDV-"/>
    <trip id="L0-HDV-152" depart="1276.80" from="left-long-approaching" to="top-exit" type="L0-HDV-"/>
    <trip id="L0-HDV-153" depart="1285.20" from="top-approaching" to="right-exit" type="L0-HDV-"/>
    <trip id="L0-HDV-154" depart="1293.60" from="bottom-approaching" to="top-exit" type="L0-HDV-"/>
    <trip id="L0-HDV-155" depart="1302.00" from="left-long-approaching" to="right-exit" type="L0-HDV-"/>
    <trip id="L0-HDV-156" depart="1310.40" from="right-approaching" to="right-exit" type="L0-HDV-"/>
    <trip id="L0-HDV-157" depart="1318.80" from="left-long-approaching" to="top-exit" type="L0-HDV-"/>
    <trip id="L0-HDV-158" depart="1327.20" from="left-long-approaching" to="left-exit" type="L0-HDV-"/>
    <trip id="L0-HDV-159" depart="1335.60" from="top-approaching" to="bottom-exit" type="L0-HDV-"/>
    <trip id="L0-HDV-160" depart="1344.00" from="left-long-approaching" to="top-exit" type="L0-HDV-"/>
    <trip id="L0-HDV-161" depart="1352.40" from="bottom-approaching" to="top-exit" type="L0-HDV-"/>
    <trip id="L0-HDV-162" depart="1360.80" from="right-approaching" to="left-exit" type="L0-HDV-"/>
    <trip id="L0-HDV-163" depart="1369.20" from="left-long-approaching" to="top-exit" type="L0-HDV-"/>
    <trip id="L0-HDV-164" depart="1377.60" from="top-approaching" to="bottom-exit" type="L0-HDV-"/>
    <trip id="L0-HDV-165" depart="1386.00" from="left-long-approaching" to="right-exit" type="L0-HDV-"/>
    <trip id="L0-HDV-166" depart="1394.40" from="left-short-approaching" to="left-exit" type="L0-HDV-"/>
    <trip id="L0-HDV-167" depart="1402.80" from="bottom-approaching" to="right-exit" type="L0-HDV-"/>
    <trip id="L0-HDV-168" depart="1411.20" from="top-approaching" to="bottom-exit" type="L0-HDV-"/>
    <trip id="L0-HDV-169" depart="1419.60" from="bottom-approaching" to="top-exit" type="L0-HDV-"/>
    <trip id="L0-HDV-170" depart="1428.00" from="top-approaching" to="right-exit" type="L0-HDV-"/>
    <trip id="L0-HDV-171" depart="1436.40" from="bottom-approaching" to="right-exit" type="L0-HDV-"/>
    <trip id="L0-HDV-172" depart="1444.80" from="top-approaching" to="top-exit" type="L0-HDV-"/>
    <trip id="L0-HDV-173" depart="1453.20" from="right-approaching" to="bottom-exit" type="L0-HDV-"/>
    <trip id="L0-HDV-174" depart="1461.60" from="top-approaching" to="bottom-exit" type="L0-HDV-"/>
    <trip id="L0-HDV-175" depart="1470.00" from="right-approaching" to="top-exit" type="L0-HDV-"/>
    <trip id="L0-HDV-176" depart="1478.40" from="right-approaching" to="bottom-exit" type="L0-HDV-"/>
    <trip id="L0-HDV-177" depart="1486.80" from="left-long-approaching" to="top-exit" type="L0-HDV-"/>
    <trip id="L0-HDV-178" depart="1495.20" from="bottom-approaching" to="right-exit" type="L0-HDV-"/>
    <trip id="L0-HDV-179" depart="1503.60" from="left-long-approaching" to="bottom-exit" type="L0-HDV-"/>
    <trip id="L0-HDV-180" depart="1512.00" from="right-approaching" to="bottom-exit" type="L0-HDV-"/>
    <trip id="L0-HDV-181" depart="1520.40" from="bottom-approaching" to="left-exit" type="L0-HDV-"/>
    <trip id="L0-HDV-182" depart="1528.80" from="bottom-approaching" to="bottom-exit" type="L0-HDV-"/>
    <trip id="L0-HDV-183" depart="1537.20" from="right-approaching" to="right-exit" type="L0-HDV-"/>
    <trip id="L0-HDV-184" depart="1545.60" from="top-approaching" to="bottom-exit" type="L0-HDV-"/>
    <trip id="L0-HDV-185" depart="1554.00" from="left-long-approaching" to="left-exit" type="L0-HDV-"/>
    <trip id="L0-HDV-186" depart="1562.40" from="right-approaching" to="left-exit" type="L0-HDV-"/>
    <trip id="L0-HDV-187" depart="1570.80" from="top-approaching" to="left-exit" type="L0-HDV-"/>
    <trip id="L0-HDV-188" depart="1579.20" from="bottom-approaching" to="right-exit" type="L0-HDV-"/>
    <trip id="L0-HDV-189" depart="1587.60" from="bottom-approaching" to="right-exit" type="L0-HDV-"/>
    <trip id="L0-HDV-190" depart="1596.00" from="right-approaching" to="top-exit" type="L0-HDV-"/>
    <trip id="L0-HDV-191" depart="1604.40" from="right-approaching" to="right-exit" type="L0-HDV-"/>
    <trip id="L0-HDV-192" depart="1612.80" from="left-long-approaching" to="right-exit" type="L0-HDV-"/>
    <trip id="L0-HDV-193" depart="1621.20" from="left-long-approaching" to="right-exit" type="L0-HDV-"/>
    <trip id="L0-HDV-194" depart="1629.60" from="right-approaching" to="bottom-exit" type="L0-HDV-"/>
    <trip id="L0-HDV-195" depart="1638.00" from="bottom-approaching" to="left-exit" type="L0-HDV-"/>
    <trip id="L0-HDV-196" depart="1646.40" from="right-approaching" to="bottom-exit" type="L0-HDV-"/>
    <trip id="L0-HDV-197" depart="1654.80" from="right-approaching" to="right-exit" type="L0-HDV-"/>
    <trip id="L0-HDV-198" depart="1663.20" from="bottom-approaching" to="right-exit" type="L0-HDV-"/>
    <trip id="L0-HDV-199" depart="1671.60" from="bottom-approaching" to="bottom-exit" type="L0-HDV-"/>
    <trip id="L0-HDV-200" depart="1680.00" from="right-approaching" to="bottom-exit" type="L0-HDV-"/>
    <trip id="L0-HDV-201" depart="1688.40" from="top-approaching" to="left-exit" type="L0-HDV-"/>
    <trip id="L0-HDV-202" depart="1696.80" from="left-long-approaching" to="top-exit" type="L0-HDV-"/>
    <trip id="L0-HDV-203" depart="1705.20" from="bottom-approaching" to="right-exit" type="L0-HDV-"/>
    <trip id="L0-HDV-204" depart="1713.60" from="bottom-approaching" to="bottom-exit" type="L0-HDV-"/>
    <trip id="L0-HDV-205" depart="1722.00" from="top-approaching" to="right-exit" type="L0-HDV-"/>
    <trip id="L0-HDV-206" depart="1730.40" from="bottom-approaching" to="bottom-exit" type="L0-HDV-"/>
    <trip id="L0-HDV-207" depart="1738.80" from="top-approaching" to="right-exit" type="L0-HDV-"/>
    <trip id="L0-HDV-208" depart="1747.20" from="top-approaching" to="bottom-exit" type="L0-HDV-"/>
    <trip id="L0-HDV-209" depart="1755.60" from="right-approaching" to="left-exit" type="L0-HDV-"/>
    <trip id="L0-HDV-210" depart="1764.00" from="bottom-approaching" to="left-exit" type="L0-HDV-"/>
    <trip id="L0-HDV-211" depart="1772.40" from="right-approaching" to="left-exit" type="L0-HDV-"/>
    <trip id="L0-HDV-212" depart="1780.80" from="left-long-approaching" to="bottom-exit" type="L0-HDV-"/>
    <trip id="L0-HDV-213" depart="1789.20" from="top-approaching" to="right-exit" type="L0-HDV-"/>
    <trip id="L0-HDV-214" depart="1797.60" from="top-approaching" to="left-exit" type="L0-HDV-"/>
    <trip id="L0-HDV-215" depart="1806.00" from="top-approaching" to="right-exit" type="L0-HDV-"/>
    <trip id="L0-HDV-216" depart="1814.40" from="right-approaching" to="right-exit" type="L0-HDV-"/>
    <trip id="L0-HDV-217" depart="1822.80" from="right-approaching" to="left-exit" type="L0-HDV-"/>
    <trip id="L0-HDV-218" depart="1831.20" from="bottom-approaching" to="bottom-exit" type="L0-HDV-"/>
    <trip id="L0-HDV-219" depart="1839.60" from="bottom-approaching" to="bottom-exit" type="L0-HDV-"/>
    <trip id="L0-HDV-220" depart="1848.00" from="top-approaching" to="left-exit" type="L0-HDV-"/>
    <trip id="L0-HDV-221" depart="1856.40" from="top-approaching" to="bottom-exit" type="L0-HDV-"/>
    <trip id="L0-HDV-222" depart="1864.80" from="left-long-approaching" to="top-exit" type="L0-HDV-"/>
    <trip id="L0-HDV-223" depart="1873.20" from="right-approaching" to="left-exit" type="L0-HDV-"/>
    <trip id="L0-HDV-224" depart="1881.60" from="left-long-approaching" to="bottom-exit" type="L0-HDV-"/>
    <trip id="L0-HDV-225" depart="1890.00" from="bottom-approaching" to="bottom-exit" type="L0-HDV-"/>
    <trip id="L0-HDV-226" depart="1898.40" from="left-long-approaching" to="left-exit" type="L0-HDV-"/>
    <trip id="L0-HDV-227" depart="1906.80" from="top-approaching" to="bottom-exit" type="L0-HDV-"/>
    <trip id="L0-HDV-228" depart="1915.20" from="left-long-approaching" to="left-exit" type="L0-HDV-"/>
    <trip id="L0-HDV-229" depart="1923.60" from="bottom-approaching" to="left-exit" type="L0-HDV-"/>
    <trip id="L0-HDV-230" depart="1932.00" from="bottom-approaching" to="left-exit" type="L0-HDV-"/>
    <trip id="L0-HDV-231" depart="1940.40" from="bottom-approaching" to="top-exit" type="L0-HDV-"/>
    <trip id="L0-HDV-232" depart="1948.80" from="left-long-approaching" to="top-exit" type="L0-HDV-"/>
    <trip id="L0-HDV-233" depart="1957.20" from="right-approaching" to="right-exit" type="L0-HDV-"/>
    <trip id="L0-HDV-234" depart="1965.60" from="left-long-approaching" to="top-exit" type="L0-HDV-"/>
    <trip id="L0-HDV-235" depart="1974.00" from="bottom-approaching" to="right-exit" type="L0-HDV-"/>
    <trip id="L0-HDV-236" depart="1982.40" from="left-long-approaching" to="right-exit" type="L0-HDV-"/>
    <trip id="L0-HDV-237" depart="1990.80" from="right-approaching" to="bottom-exit" type="L0-HDV-"/>
    <trip id="L0-HDV-238" depart="1999.20" from="bottom-approaching" to="bottom-exit" type="L0-HDV-"/>
    <trip id="L0-HDV-239" depart="2007.60" from="bottom-approaching" to="bottom-exit" type="L0-HDV-"/>
    <trip id="L0-HDV-240" depart="2016.00" from="left-long-approaching" to="top-exit" type="L0-HDV-"/>
    <trip id="L0-HDV-241" depart="2024.40" from="left-long-approaching" to="left-exit" type="L0-HDV-"/>
    <trip id="L0-HDV-242" depart="2032.80" from="left-long-approaching" to="left-exit" type="L0-HDV-"/>
    <trip id="L0-HDV-243" depart="2041.20" from="right-approaching" to="right-exit" type="L0-HDV-"/>
    <trip id="L0-HDV-244" depart="2049.60" from="bottom-approaching" to="bottom-exit" type="L0-HDV-"/>
    <trip id="L0-HDV-245" depart="2058.00" from="right-approaching" to="top-exit" type="L0-HDV-"/>
    <trip id="L0-HDV-246" depart="2066.40" from="right-approaching" to="left-exit" type="L0-HDV-"/>
    <trip id="L0-HDV-247" depart="2074.80" from="top-approaching" to="bottom-exit" type="L0-HDV-"/>
    <trip id="L0-HDV-248" depart="2083.20" from="bottom-approaching" to="top-exit" type="L0-HDV-"/>
    <trip id="L0-HDV-249" depart="2091.60" from="left-long-approaching" to="bottom-exit" type="L0-HDV-"/>
    <trip id="L0-HDV-250" depart="2100.00" from="right-approaching" to="top-exit" type="L0-HDV-"/>
    <trip id="L0-HDV-251" depart="2108.40" from="right-approaching" to="left-exit" type="L0-HDV-"/>
    <trip id="L0-HDV-252" depart="2116.80" from="bottom-approaching" to="bottom-exit" type="L0-HDV-"/>
    <trip id="L0-HDV-253" depart="2125.20" from="top-approaching" to="left-exit" type="L0-HDV-"/>
    <trip id="L0-HDV-254" depart="2133.60" from="top-approaching" to="bottom-exit" type="L0-HDV-"/>
    <trip id="L0-HDV-255" depart="2142.00" from="bottom-approaching" to="bottom-exit" type="L0-HDV-"/>
    <trip id="L0-HDV-256" depart="2150.40" from="left-long-approaching" to="bottom-exit" type="L0-HDV-"/>
    <trip id="L0-HDV-257" depart="2158.80" from="left-long-approaching" to="left-exit" type="L0-HDV-"/>
    <trip id="L0-HDV-258" depart="2167.20" from="left-long-approaching" to="bottom-exit" type="L0-HDV-"/>
    <trip id="L0-HDV-259" depart="2175.60" from="bottom-approaching" to="top-exit" type="L0-HDV-"/>
    <trip id="L0-HDV-260" depart="2184.00" from="bottom-approaching" to="right-exit" type="L0-HDV-"/>
    <trip id="L0-HDV-261" depart="2192.40" from="left-long-approaching" to="right-exit" type="L0-HDV-"/>
    <trip id="L0-HDV-262" depart="2200.80" from="bottom-approaching" to="left-exit" type="L0-HDV-"/>
    <trip id="L0-HDV-263" depart="2209.20" from="bottom-approaching" to="right-exit" type="L0-HDV-"/>
    <trip id="L0-HDV-264" depart="2217.60" from="top-approaching" to="right-exit" type="L0-HDV-"/>
    <trip id="L0-HDV-265" depart="2226.00" from="top-approaching" to="bottom-exit" type="L0-HDV-"/>
    <trip id="L0-HDV-266" depart="2234.40" from="bottom-approaching" to="right-exit" type="L0-HDV-"/>
    <trip id="L0-HDV-267" depart="2242.80" from="left-long-approaching" to="right-exit" type="L0-HDV-"/>
    <trip id="L0-HDV-268" depart="2251.20" from="left-long-approaching" to="right-exit" type="L0-HDV-"/>
    <trip id="L0-HDV-269" depart="2259.60" from="right-approaching" to="top-exit" type="L0-HDV-"/>
    <trip id="L0-HDV-270" depart="2268.00" from="left-long-approaching" to="left-exit" type="L0-HDV-"/>
    <trip id="L0-HDV-271" depart="2276.40" from="top-approaching" to="bottom-exit" type="L0-HDV-"/>
    <trip id="L0-HDV-272" depart="2284.80" from="bottom-approaching" to="left-exit" type="L0-HDV-"/>
    <trip id="L0-HDV-273" depart="2293.20" from="bottom-approaching" to="top-exit" type="L0-HDV-"/>
    <trip id="L0-HDV-274" depart="2301.60" from="top-approaching" to="left-exit" type="L0-HDV-"/>
    <trip id="L0-HDV-275" depart="2310.00" from="bottom-approaching" to="bottom-exit" type="L0-HDV-"/>
    <trip id="L0-HDV-276" depart="2318.40" from="bottom-approaching" to="bottom-exit" type="L0-HDV-"/>
    <trip id="L0-HDV-277" depart="2326.80" from="left-long-approaching" to="right-exit" type="L0-HDV-"/>
    <trip id="L0-HDV-278" depart="2335.20" from="bottom-approaching" to="bottom-exit" type="L0-HDV-"/>
    <trip id="L0-HDV-279" depart="2343.60" from="right-approaching" to="bottom-exit" type="L0-HDV-"/>
    <trip id="L0-HDV-280" depart="2352.00" from="bottom-approaching" to="left-exit" type="L0-HDV-"/>
    <trip id="L0-HDV-281" depart="2360.40" from="left-long-approaching" to="bottom-exit" type="L0-HDV-"/>
    <trip id="L0-HDV-282" depart="2368.80" from="left-long-approaching" to="left-exit" type="L0-HDV-"/>
    <trip id="L0-HDV-283" depart="2377.20" from="top-approaching" to="right-exit" type="L0-HDV-"/>
    <trip id="L0-HDV-284" depart="2385.60" from="top-approaching" to="right-exit" type="L0-HDV-"/>
    <trip id="L0-HDV-285" depart="2394.00" from="top-approaching" to="right-exit" type="L0-HDV-"/>
    <trip id="L0-HDV-286" depart="2402.40" from="left-long-approaching" to="top-exit" type="L0-HDV-"/>
    <trip id="L0-HDV-287" depart="2410.80" from="right-approaching" to="top-exit" type="L0-HDV-"/>
    <trip id="L0-HDV-288" depart="2419.20" from="right-approaching" to="right-exit" type="L0-HDV-"/>
    <trip id="L0-HDV-289" depart="2427.60" from="left-long-approaching" to="top-exit" type="L0-HDV-"/>
    <trip id="L0-HDV-290" depart="2436.00" from="left-long-approaching" to="bottom-exit" type="L0-HDV-"/>
    <trip id="L0-HDV-291" depart="2444.40" from="bottom-approaching" to="bottom-exit" type="L0-HDV-"/>
    <trip id="L0-HDV-292" depart="2452.80" from="left-long-approaching" to="right-exit" type="L0-HDV-"/>