<?xml version="1.0" encoding="UTF-8"?>
<!-- generated on 2021-02-27 18:30:37.076956 by $Id$ v1_8_0+0044-4820708f3d
  options: -n Roadworks/RoadworksIntersection.net.xml <doubleminus>fringe-factor 40 -r Roadworks/BaselineHDV/Route-Files/L0-HDV-Route.rou.xml <doubleminus>trip-attributes=type="L0-HDV" -l <doubleminus>prefix L0-HDV- <doubleminus>seed 7 -p 0.94
-->
<routes xmlns:xsi="http://www.w3.org/2001/XMLSchema-instance" xsi:noNamespaceSchemaLocation="http://sumo.dlr.de/xsd/routes_file.xsd">
    <trip id="L0-HDV-0" depart="0.00" from="left-long-approaching" to="bottom-exit" type="L0-HDV"/>
    <trip id="L0-HDV-1" depart="0.94" from="right-approaching" to="bottom-exit" type="L0-HDV"/>
    <trip id="L0-HDV-2" depart="1.88" from="right-approaching" to="left-exit" type="L0-HDV"/>
    <trip id="L0-HDV-3" depart="2.82" from="bottom-approaching" to="right-exit" type="L0-HDV"/>
    <trip id="L0-HDV-4" depart="3.76" from="bottom-approaching" to="left-exit" type="L0-HDV"/>
    <trip id="L0-HDV-5" depart="4.70" from="bottom-approaching" to="bottom-exit" type="L0-HDV"/>
    <trip id="L0-HDV-6" depart="5.64" from="left-long-approaching" to="top-exit" type="L0-HDV"/>
    <trip id="L0-HDV-7" depart="6.58" from="bottom-approaching" to="bottom-exit" type="L0-HDV"/>
    <trip id="L0-HDV-8" depart="7.52" from="right-approaching" to="top-exit" type="L0-HDV"/>
    <trip id="L0-HDV-9" depart="8.46" from="right-approaching" to="left-exit" type="L0-HDV"/>
    <trip id="L0-HDV-10" depart="9.40" from="top-approaching" to="bottom-exit" type="L0-HDV"/>
    <trip id="L0-HDV-11" depart="10.34" from="top-approaching" to="left-exit" type="L0-HDV"/>
    <trip id="L0-HDV-12" depart="11.28" from="bottom-approaching" to="bottom-exit" type="L0-HDV"/>
    <trip id="L0-HDV-13" depart="12.22" from="left-long-approaching" to="top-exit" type="L0-HDV"/>
    <trip id="L0-HDV-14" depart="13.16" from="bottom-approaching" to="right-exit" type="L0-HDV"/>
    <trip id="L0-HDV-15" depart="14.10" from="right-approaching" to="left-exit" type="L0-HDV"/>
    <trip id="L0-HDV-16" depart="15.04" from="right-approaching" to="bottom-exit" type="L0-HDV"/>
    <trip id="L0-HDV-17" depart="15.98" from="bottom-approaching" to="bottom-exit" type="L0-HDV"/>
    <trip id="L0-HDV-18" depart="16.92" from="right-approaching" to="left-exit" type="L0-HDV"/>
    <trip id="L0-HDV-19" depart="17.86" from="left-long-approaching" to="right-exit" type="L0-HDV"/>
    <trip id="L0-HDV-20" depart="18.80" from="left-long-approaching" to="left-exit" type="L0-HDV"/>
    <trip id="L0-HDV-21" depart="19.74" from="top-approaching" to="right-exit" type="L0-HDV"/>
    <trip id="L0-HDV-22" depart="20.68" from="bottom-approaching" to="right-exit" type="L0-HDV"/>
    <trip id="L0-HDV-23" depart="21.62" from="right-approaching" to="top-exit" type="L0-HDV"/>
    <trip id="L0-HDV-24" depart="22.56" from="right-approaching" to="left-exit" type="L0-HDV"/>
    <trip id="L0-HDV-25" depart="23.50" from="top-approaching" to="bottom-exit" type="L0-HDV"/>
    <trip id="L0-HDV-26" depart="24.44" from="left-long-approaching" to="top-exit" type="L0-HDV"/>
    <trip id="L0-HDV-27" depart="25.38" from="bottom-approaching" to="left-exit" type="L0-HDV"/>
    <trip id="L0-HDV-28" depart="26.32" from="bottom-approaching" to="right-exit" type="L0-HDV"/>
    <trip id="L0-HDV-29" depart="27.26" from="top-approaching" to="right-exit" type="L0-HDV"/>
    <trip id="L0-HDV-30" depart="28.20" from="top-approaching" to="left-exit" type="L0-HDV"/>
    <trip id="L0-HDV-31" depart="29.14" from="right-approaching" to="right-exit" type="L0-HDV"/>
    <trip id="L0-HDV-32" depart="30.08" from="right-approaching" to="left-exit" type="L0-HDV"/>
    <trip id="L0-HDV-33" depart="31.02" from="top-approaching" to="top-exit" type="L0-HDV"/>
    <trip id="L0-HDV-34" depart="31.96" from="left-long-approaching" to="right-exit" type="L0-HDV"/>
    <trip id="L0-HDV-35" depart="32.90" from="bottom-approaching" to="right-exit" type="L0-HDV"/>
    <trip id="L0-HDV-36" depart="33.84" from="right-approaching" to="top-exit" type="L0-HDV"/>
    <trip id="L0-HDV-37" depart="34.78" from="top-approaching" to="left-exit" type="L0-HDV"/>
    <trip id="L0-HDV-38" depart="35.72" from="left-long-approaching" to="right-exit" type="L0-HDV"/>
    <trip id="L0-HDV-39" depart="36.66" from="bottom-approaching" to="left-exit" type="L0-HDV"/>
    <trip id="L0-HDV-40" depart="37.60" from="bottom-approaching" to="bottom-exit" type="L0-HDV"/>
    <trip id="L0-HDV-41" depart="38.54" from="bottom-approaching" to="top-exit" type="L0-HDV"/>
    <trip id="L0-HDV-42" depart="39.48" from="bottom-approaching" to="closed-lane" type="L0-HDV"/>
    <trip id="L0-HDV-43" depart="40.42" from="left-long-approaching" to="top-exit" type="L0-HDV"/>
    <trip id="L0-HDV-44" depart="41.36" from="bottom-approaching" to="left-exit" type="L0-HDV"/>
    <trip id="L0-HDV-45" depart="42.30" from="right-approaching" to="top-exit" type="L0-HDV"/>
    <trip id="L0-HDV-46" depart="43.24" from="top-approaching" to="top-exit" type="L0-HDV"/>
    <trip id="L0-HDV-47" depart="44.18" from="left-long-approaching" to="left-exit" type="L0-HDV"/>
    <trip id="L0-HDV-48" depart="45.12" from="left-long-approaching" to="top-exit" type="L0-HDV"/>
    <trip id="L0-HDV-49" depart="46.06" from="top-approaching" to="bottom-exit" type="L0-HDV"/>
    <trip id="L0-HDV-50" depart="47.00" from="bottom-approaching" to="bottom-exit" type="L0-HDV"/>
    <trip id="L0-HDV-51" depart="47.94" from="bottom-approaching" to="left-exit" type="L0-HDV"/>
    <trip id="L0-HDV-52" depart="48.88" from="right-approaching" to="left-exit" type="L0-HDV"/>
    <trip id="L0-HDV-53" depart="49.82" from="bottom-approaching" to="left-exit" type="L0-HDV"/>
    <trip id="L0-HDV-54" depart="50.76" from="left-long-approaching" to="right-exit" type="L0-HDV"/>
    <trip id="L0-HDV-55" depart="51.70" from="top-approaching" to="right-exit" type="L0-HDV"/>
    <trip id="L0-HDV-56" depart="52.64" from="right-approaching" to="right-exit" type="L0-HDV"/>
    <trip id="L0-HDV-57" depart="53.58" from="right-approaching" to="bottom-exit" type="L0-HDV"/>
    <trip id="L0-HDV-58" depart="54.52" from="top-approaching" to="top-exit" type="L0-HDV"/>
    <trip id="L0-HDV-59" depart="55.46" from="top-approaching" to="top-exit" type="L0-HDV"/>
    <trip id="L0-HDV-60" depart="56.40" from="left-long-approaching" to="left-exit" type="L0-HDV"/>
    <trip id="L0-HDV-61" depart="57.34" from="bottom-approaching" to="right-exit" type="L0-HDV"/>
    <trip id="L0-HDV-62" depart="58.28" from="bottom-approaching" to="bottom-exit" type="L0-HDV"/>
    <trip id="L0-HDV-63" depart="59.22" from="bottom-approaching" to="bottom-exit" type="L0-HDV"/>
    <trip id="L0-HDV-64" depart="60.16" from="left-long-approaching" to="bottom-exit" type="L0-HDV"/>
    <trip id="L0-HDV-65" depart="61.10" from="bottom-approaching" to="bottom-exit" type="L0-HDV"/>
    <trip id="L0-HDV-66" depart="62.04" from="bottom-approaching" to="left-exit" type="L0-HDV"/>
    <trip id="L0-HDV-67" depart="62.98" from="bottom-approaching" to="top-exit" type="L0-HDV"/>
    <trip id="L0-HDV-68" depart="63.92" from="right-approaching" to="bottom-exit" type="L0-HDV"/>
    <trip id="L0-HDV-69" depart="64.86" from="left-long-approaching" to="left-exit" type="L0-HDV"/>
    <trip id="L0-HDV-70" depart="65.80" from="left-long-approaching" to="bottom-exit" type="L0-HDV"/>
    <trip id="L0-HDV-71" depart="66.74" from="top-approaching" to="top-exit" type="L0-HDV"/>
    <trip id="L0-HDV-72" depart="67.68" from="left-long-approaching" to="left-exit" type="L0-HDV"/>
    <trip id="L0-HDV-73" depart="68.62" from="bottom-approaching" to="bottom-exit" type="L0-HDV"/>
    <trip id="L0-HDV-74" depart="69.56" from="left-long-approaching" to="left-exit" type="L0-HDV"/>
    <trip id="L0-HDV-75" depart="70.50" from="top-approaching" to="bottom-exit" type="L0-HDV"/>
    <trip id="L0-HDV-76" depart="71.44" from="bottom-approaching" to="top-exit" type="L0-HDV"/>
    <trip id="L0-HDV-77" depart="72.38" from="right-approaching" to="bottom-exit" type="L0-HDV"/>
    <trip id="L0-HDV-78" depart="73.32" from="right-approaching" to="bottom-exit" type="L0-HDV"/>
    <trip id="L0-HDV-79" depart="74.26" from="right-approaching" to="top-exit" type="L0-HDV"/>
    <trip id="L0-HDV-80" depart="75.20" from="top-approaching" to="right-exit" type="L0-HDV"/>
    <trip id="L0-HDV-81" depart="76.14" from="left-long-approaching" to="left-exit" type="L0-HDV"/>
    <trip id="L0-HDV-82" depart="77.08" from="bottom-approaching" to="top-exit" type="L0-HDV"/>
    <trip id="L0-HDV-83" depart="78.02" from="right-approaching" to="top-exit" type="L0-HDV"/>
    <trip id="L0-HDV-84" depart="78.96" from="left-long-approaching" to="bottom-exit" type="L0-HDV"/>
    <trip id="L0-HDV-85" depart="79.90" from="top-approaching" to="top-exit" type="L0-HDV"/>
    <trip id="L0-HDV-86" depart="80.84" from="top-approaching" to="top-exit" type="L0-HDV"/>
    <trip id="L0-HDV-87" depart="81.78" from="top-approaching" to="right-exit" type="L0-HDV"/>
    <trip id="L0-HDV-88" depart="82.72" from="bottom-approaching" to="right-exit" type="L0-HDV"/>
    <trip id="L0-HDV-89" depart="83.66" from="left-long-approaching" to="bottom-exit" type="L0-HDV"/>
    <trip id="L0-HDV-90" depart="84.60" from="bottom-approaching" to="left-exit" type="L0-HDV"/>
    <trip id="L0-HDV-91" depart="85.54" from="left-long-approaching" to="right-exit" type="L0-HDV"/>
    <trip id="L0-HDV-92" depart="86.48" from="top-approaching" to="left-exit" type="L0-HDV"/>
    <trip id="L0-HDV-93" depart="87.42" from="top-approaching" to="top-exit" type="L0-HDV"/>
    <trip id="L0-HDV-94" depart="88.36" from="top-approaching" to="left-exit" type="L0-HDV"/>
    <trip id="L0-HDV-95" depart="89.30" from="bottom-approaching" to="bottom-exit" type="L0-HDV"/>
    <trip id="L0-HDV-96" depart="90.24" from="bottom-approaching" to="bottom-exit" type="L0-HDV"/>
    <trip id="L0-HDV-97" depart="91.18" from="right-approaching" to="top-exit" type="L0-HDV"/>
    <trip id="L0-HDV-98" depart="92.12" from="top-approaching" to="left-exit" type="L0-HDV"/>
    <trip id="L0-HDV-99" depart="93.06" from="right-approaching" to="top-exit" type="L0-HDV"/>
    <trip id="L0-HDV-100" depart="94.00" from="bottom-approaching" to="right-exit" type="L0-HDV"/>
    <trip id="L0-HDV-101" depart="94.94" from="top-approaching" to="top-exit" type="L0-HDV"/>
    <trip id="L0-HDV-102" depart="95.88" from="right-approaching" to="left-exit" type="L0-HDV"/>
    <trip id="L0-HDV-103" depart="96.82" from="bottom-approaching" to="top-exit" type="L0-HDV"/>
    <trip id="L0-HDV-104" depart="97.76" from="left-long-approaching" to="top-exit" type="L0-HDV"/>
    <trip id="L0-HDV-105" depart="98.70" from="top-approaching" to="left-exit" type="L0-HDV"/>
    <trip id="L0-HDV-106" depart="99.64" from="left-long-approaching" to="top-exit" type="L0-HDV"/>
    <trip id="L0-HDV-107" depart="100.58" from="right-approaching" to="bottom-exit" type="L0-HDV"/>
    <trip id="L0-HDV-108" depart="101.52" from="bottom-approaching" to="bottom-exit" type="L0-HDV"/>
    <trip id="L0-HDV-109" depart="102.46" from="top-approaching" to="top-exit" type="L0-HDV"/>
    <trip id="L0-HDV-110" depart="103.40" from="bottom-approaching" to="top-exit" type="L0-HDV"/>
    <trip id="L0-HDV-111" depart="104.34" from="top-approaching" to="right-exit" type="L0-HDV"/>
    <trip id="L0-HDV-112" depart="105.28" from="left-long-approaching" to="right-exit" type="L0-HDV"/>
    <trip id="L0-HDV-113" depart="106.22" from="bottom-approaching" to="bottom-exit" type="L0-HDV"/>
    <trip id="L0-HDV-114" depart="107.16" from="top-approaching" to="right-exit" type="L0-HDV"/>
    <trip id="L0-HDV-115" depart="108.10" from="right-approaching" to="top-exit" type="L0-HDV"/>
    <trip id="L0-HDV-116" depart="109.04" from="left-long-approaching" to="top-exit" type="L0-HDV"/>
    <trip id="L0-HDV-117" depart="109.98" from="top-approaching" to="bottom-exit" type="L0-HDV"/>
    <trip id="L0-HDV-118" depart="110.92" from="left-long-approaching" to="left-exit" type="L0-HDV"/>
    <trip id="L0-HDV-119" depart="111.86" from="bottom-approaching" to="right-exit" type="L0-HDV"/>
    <trip id="L0-HDV-120" depart="112.80" from="left-long-approaching" to="left-exit" type="L0-HDV"/>
    <trip id="L0-HDV-121" depart="113.74" from="bottom-approaching" to="top-exit" type="L0-HDV"/>
    <trip id="L0-HDV-122" depart="114.68" from="left-long-approaching" to="left-exit" type="L0-HDV"/>
    <trip id="L0-HDV-123" depart="115.62" from="right-approaching" to="top-exit" type="L0-HDV"/>
    <trip id="L0-HDV-124" depart="116.56" from="left-long-approaching" to="top-exit" type="L0-HDV"/>
    <trip id="L0-HDV-125" depart="117.50" from="preparation" to="right-exit" type="L0-HDV"/>
    <trip id="L0-HDV-126" depart="118.44" from="right-approaching" to="bottom-exit" type="L0-HDV"/>
    <trip id="L0-HDV-127" depart="119.38" from="left-long-approaching" to="bottom-exit" type="L0-HDV"/>
    <trip id="L0-HDV-128" depart="120.32" from="bottom-approaching" to="top-exit" type="L0-HDV"/>
    <trip id="L0-HDV-129" depart="121.26" from="bottom-approaching" to="left-exit" type="L0-HDV"/>
    <trip id="L0-HDV-130" depart="122.20" from="right-approaching" to="right-exit" type="L0-HDV"/>
    <trip id="L0-HDV-131" depart="123.14" from="left-long-approaching" to="right-exit" type="L0-HDV"/>
    <trip id="L0-HDV-132" depart="124.08" from="right-approaching" to="top-exit" type="L0-HDV"/>
    <trip id="L0-HDV-133" depart="125.02" from="bottom-approaching" to="right-exit" type="L0-HDV"/>
    <trip id="L0-HDV-134" depart="125.96" from="closed-lane" to="left-exit" type="L0-HDV"/>
    <trip id="L0-HDV-135" depart="126.90" from="top-approaching" to="right-exit" type="L0-HDV"/>
    <trip id="L0-HDV-136" depart="127.84" from="right-approaching" to="top-exit" type="L0-HDV"/>
    <trip id="L0-HDV-137" depart="128.78" from="top-approaching" to="left-exit" type="L0-HDV"/>
    <trip id="L0-HDV-138" depart="129.72" from="right-approaching" to="right-exit" type="L0-HDV"/>
    <trip id="L0-HDV-139" depart="130.66" from="right-approaching" to="right-exit" type="L0-HDV"/>
    <trip id="L0-HDV-140" depart="131.60" from="left-long-approaching" to="right-exit" type="L0-HDV"/>
    <trip id="L0-HDV-141" depart="132.54" from="left-long-approaching" to="top-exit" type="L0-HDV"/>
    <trip id="L0-HDV-142" depart="133.48" from="right-approaching" to="top-exit" type="L0-HDV"/>
    <trip id="L0-HDV-143" depart="134.42" from="top-approaching" to="left-exit" type="L0-HDV"/>
    <trip id="L0-HDV-144" depart="135.36" from="right-approaching" to="top-exit" type="L0-HDV"/>
    <trip id="L0-HDV-145" depart="136.30" from="top-approaching" to="bottom-exit" type="L0-HDV"/>
    <trip id="L0-HDV-146" depart="137.24" from="bottom-approaching" to="left-exit" type="L0-HDV"/>
    <trip id="L0-HDV-147" depart="138.18" from="bottom-approaching" to="bottom-exit" type="L0-HDV"/>
    <trip id="L0-HDV-148" depart="139.12" from="bottom-approaching" to="right-exit" type="L0-HDV"/>
    <trip id="L0-HDV-149" depart="140.06" from="top-approaching" to="top-exit" type="L0-HDV"/>
    <trip id="L0-HDV-150" depart="141.00" from="bottom-approaching" to="right-exit" type="L0-HDV"/>
    <trip id="L0-HDV-151" depart="141.94" from="right-approaching" to="bottom-exit" type="L0-HDV"/>
    <trip id="L0-HDV-152" depart="142.88" from="top-approaching" to="top-exit" type="L0-HDV"/>
    <trip id="L0-HDV-153" depart="143.82" from="bottom-approaching" to="top-exit" type="L0-HDV"/>
    <trip id="L0-HDV-154" depart="144.76" from="left-long-approaching" to="left-exit" type="L0-HDV"/>
    <trip id="L0-HDV-155" depart="145.70" from="top-approaching" to="top-exit" type="L0-HDV"/>
    <trip id="L0-HDV-156" depart="146.64" from="bottom-approaching" to="left-exit" type="L0-HDV"/>
    <trip id="L0-HDV-157" depart="147.58" from="right-approaching" to="left-exit" type="L0-HDV"/>
    <trip id="L0-HDV-158" depart="148.52" from="bottom-approaching" to="left-exit" type="L0-HDV"/>
    <trip id="L0-HDV-159" depart="149.46" from="right-approaching" to="bottom-exit" type="L0-HDV"/>
    <trip id="L0-HDV-160" depart="150.40" from="right-approaching" to="left-exit" type="L0-HDV"/>
    <trip id="L0-HDV-161" depart="151.34" from="bottom-approaching" to="left-exit" type="L0-HDV"/>
    <trip id="L0-HDV-162" depart="152.28" from="right-approaching" to="right-exit" type="L0-HDV"/>
    <trip id="L0-HDV-163" depart="153.22" from="bottom-approaching" to="top-exit" type="L0-HDV"/>
    <trip id="L0-HDV-164" depart="154.16" from="top-approaching" to="top-exit" type="L0-HDV"/>
    <trip id="L0-HDV-165" depart="155.10" from="bottom-approaching" to="left-exit" type="L0-HDV"/>
    <trip id="L0-HDV-166" depart="156.04" from="bottom-approaching" to="top-exit" type="L0-HDV"/>
    <trip id="L0-HDV-167" depart="156.98" from="left-long-approaching" to="bottom-exit" type="L0-HDV"/>
    <trip id="L0-HDV-168" depart="157.92" from="left-long-approaching" to="top-exit" type="L0-HDV"/>
    <trip id="L0-HDV-169" depart="158.86" from="top-approaching" to="left-exit" type="L0-HDV"/>
    <trip id="L0-HDV-170" depart="159.80" from="bottom-approaching" to="top-exit" type="L0-HDV"/>
    <trip id="L0-HDV-171" depart="160.74" from="right-approaching" to="right-exit" type="L0-HDV"/>
    <trip id="L0-HDV-172" depart="161.68" from="bottom-approaching" to="bottom-exit" type="L0-HDV"/>
    <trip id="L0-HDV-173" depart="162.62" from="right-approaching" to="left-exit" type="L0-HDV"/>
    <trip id="L0-HDV-174" depart="163.56" from="bottom-approaching" to="top-exit" type="L0-HDV"/>
    <trip id="L0-HDV-175" depart="164.50" from="right-approaching" to="top-exit" type="L0-HDV"/>
    <trip id="L0-HDV-176" depart="165.44" from="bottom-approaching" to="top-exit" type="L0-HDV"/>
    <trip id="L0-HDV-177" depart="166.38" from="bottom-approaching" to="top-exit" type="L0-HDV"/>
    <trip id="L0-HDV-178" depart="167.32" from="left-long-approaching" to="left-exit" type="L0-HDV"/>
    <trip id="L0-HDV-179" depart="168.26" from="right-approaching" to="top-exit" type="L0-HDV"/>
    <trip id="L0-HDV-180" depart="169.20" from="left-long-approaching" to="bottom-exit" type="L0-HDV"/>
    <trip id="L0-HDV-181" depart="170.14" from="right-approaching" to="bottom-exit" type="L0-HDV"/>
    <trip id="L0-HDV-182" depart="171.08" from="bottom-approaching" to="bottom-exit" type="L0-HDV"/>
    <trip id="L0-HDV-183" depart="172.02" from="bottom-approaching" to="bottom-exit" type="L0-HDV"/>
    <trip id="L0-HDV-184" depart="172.96" from="left-long-approaching" to="left-exit" type="L0-HDV"/>
    <trip id="L0-HDV-185" depart="173.90" from="top-approaching" to="left-exit" type="L0-HDV"/>
    <trip id="L0-HDV-186" depart="174.84" from="preparation" to="bottom-exit" type="L0-HDV"/>
    <trip id="L0-HDV-187" depart="175.78" from="left-long-approaching" to="bottom-exit" type="L0-HDV"/>
    <trip id="L0-HDV-188" depart="176.72" from="left-long-approaching" to="bottom-exit" type="L0-HDV"/>
    <trip id="L0-HDV-189" depart="177.66" from="right-approaching" to="right-exit" type="L0-HDV"/>
    <trip id="L0-HDV-190" depart="178.60" from="bottom-approaching" to="left-exit" type="L0-HDV"/>
    <trip id="L0-HDV-191" depart="179.54" from="top-approaching" to="bottom-exit" type="L0-HDV"/>
    <trip id="L0-HDV-192" depart="180.48" from="top-approaching" to="left-exit" type="L0-HDV"/>
    <trip id="L0-HDV-193" depart="181.42" from="left-long-approaching" to="top-exit" type="L0-HDV"/>
    <trip id="L0-HDV-194" depart="182.36" from="left-long-approaching" to="right-exit" type="L0-HDV"/>
    <trip id="L0-HDV-195" depart="183.30" from="right-approaching" to="top-exit" type="L0-HDV"/>
    <trip id="L0-HDV-196" depart="184.24" from="left-long-approaching" to="top-exit" type="L0-HDV"/>
    <trip id="L0-HDV-197" depart="185.18" from="right-approaching" to="right-exit" type="L0-HDV"/>
    <trip id="L0-HDV-198" depart="186.12" from="left-long-approaching" to="left-exit" type="L0-HDV"/>
    <trip id="L0-HDV-199" depart="187.06" from="bottom-approaching" to="bottom-exit" type="L0-HDV"/>
    <trip id="L0-HDV-200" depart="188.00" from="bottom-approaching" to="right-exit" type="L0-HDV"/>
    <trip id="L0-HDV-201" depart="188.94" from="left-long-approaching" to="bottom-exit" type="L0-HDV"/>
    <trip id="L0-HDV-202" depart="189.88" from="bottom-approaching" to="top-exit" type="L0-HDV"/>
    <trip id="L0-HDV-203" depart="190.82" from="top-approaching" to="right-exit" type="L0-HDV"/>
    <trip id="L0-HDV-204" depart="191.76" from="left-long-approaching" to="bottom-exit" type="L0-HDV"/>
    <trip id="L0-HDV-205" depart="192.70" from="left-long-approaching" to="left-exit" type="L0-HDV"/>
    <trip id="L0-HDV-206" depart="193.64" from="bottom-approaching" to="left-exit" type="L0-HDV"/>
    <trip id="L0-HDV-207" depart="194.58" from="left-long-approaching" to="top-exit" type="L0-HDV"/>
    <trip id="L0-HDV-208" depart="195.52" from="top-approaching" to="right-exit" type="L0-HDV"/>
    <trip id="L0-HDV-209" depart="196.46" from="bottom-approaching" to="top-exit" type="L0-HDV"/>
    <trip id="L0-HDV-210" depart="197.40" from="left-long-approaching" to="left-exit" type="L0-HDV"/>
    <trip id="L0-HDV-211" depart="198.34" from="bottom-approaching" to="left-exit" type="L0-HDV"/>
    <trip id="L0-HDV-212" depart="199.28" from="left-long-approaching" to="preparation" type="L0-HDV"/>
    <trip id="L0-HDV-213" depart="200.22" from="bottom-approaching" to="preparation" type="L0-HDV"/>
    <trip id="L0-HDV-214" depart="201.16" from="bottom-approaching" to="left-exit" type="L0-HDV"/>
    <trip id="L0-HDV-215" depart="202.10" from="bottom-approaching" to="left-exit" type="L0-HDV"/>
    <trip id="L0-HDV-216" depart="203.04" from="bottom-approaching" to="bottom-exit" type="L0-HDV"/>
    <trip id="L0-HDV-217" depart="203.98" from="left-long-approaching" to="bottom-exit" type="L0-HDV"/>
    <trip id="L0-HDV-218" depart="204.92" from="right-approaching" to="right-exit" type="L0-HDV"/>
    <trip id="L0-HDV-219" depart="205.86" from="right-approaching" to="right-exit" type="L0-HDV"/>
    <trip id="L0-HDV-220" depart="206.80" from="right-approaching" to="top-exit" type="L0-HDV"/>
    <trip id="L0-HDV-221" depart="207.74" from="left-long-approaching" to="left-exit" type="L0-HDV"/>
    <trip id="L0-HDV-222" depart="208.68" from="top-approaching" to="bottom-exit" type="L0-HDV"/>
    <trip id="L0-HDV-223" depart="209.62" from="right-approaching" to="right-exit" type="L0-HDV"/>
    <trip id="L0-HDV-224" depart="210.56" from="bottom-approaching" to="top-exit" type="L0-HDV"/>
    <trip id="L0-HDV-225" depart="211.50" from="top-approaching" to="right-exit" type="L0-HDV"/>
    <trip id="L0-HDV-226" depart="212.44" from="right-approaching" to="top-exit" type="L0-HDV"/>
    <trip id="L0-HDV-227" depart="213.38" from="bottom-approaching" to="right-exit" type="L0-HDV"/>
    <trip id="L0-HDV-228" depart="214.32" from="preparation" to="top-exit" type="L0-HDV"/>
    <trip id="L0-HDV-229" depart="215.26" from="top-approaching" to="top-exit" type="L0-HDV"/>
    <trip id="L0-HDV-230" depart="216.20" from="right-approaching" to="top-exit" type="L0-HDV"/>
    <trip id="L0-HDV-231" depart="217.14" from="right-approaching" to="right-exit" type="L0-HDV"/>
    <trip id="L0-HDV-232" depart="218.08" from="bottom-approaching" to="bottom-exit" type="L0-HDV"/>
    <trip id="L0-HDV-233" depart="219.02" from="bottom-approaching" to="left-exit" type="L0-HDV"/>
    <trip id="L0-HDV-234" depart="219.96" from="bottom-approaching" to="top-exit" type="L0-HDV"/>
    <trip id="L0-HDV-235" depart="220.90" from="right-approaching" to="right-exit" type="L0-HDV"/>
    <trip id="L0-HDV-236" depart="221.84" from="right-approaching" to="right-exit" type="L0-HDV"/>
    <trip id="L0-HDV-237" depart="222.78" from="left-long-approaching" to="bottom-exit" type="L0-HDV"/>
    <trip id="L0-HDV-238" depart="223.72" from="top-approaching" to="right-exit" type="L0-HDV"/>
    <trip id="L0-HDV-239" depart="224.66" from="preparation" to="right-exit" type="L0-HDV"/>
    <trip id="L0-HDV-240" depart="225.60" from="right-approaching" to="bottom-exit" type="L0-HDV"/>
    <trip id="L0-HDV-241" depart="226.54" from="right-approaching" to="left-exit" type="L0-HDV"/>
    <trip id="L0-HDV-242" depart="227.48" from="bottom-approaching" to="left-exit" type="L0-HDV"/>
    <trip id="L0-HDV-243" depart="228.42" from="right-approaching" to="bottom-exit" type="L0-HDV"/>
    <trip id="L0-HDV-244" depart="229.36" from="right-approaching" to="top-exit" type="L0-HDV"/>
    <trip id="L0-HDV-245" depart="230.30" from="left-long-approaching" to="left-exit" type="L0-HDV"/>
    <trip id="L0-HDV-246" depart="231.24" from="left-long-approaching" to="right-exit" type="L0-HDV"/>
    <trip id="L0-HDV-247" depart="232.18" from="top-approaching" to="right-exit" type="L0-HDV"/>
    <trip id="L0-HDV-248" depart="233.12" from="right-approaching" to="bottom-exit" type="L0-HDV"/>
    <trip id="L0-HDV-249" depart="234.06" from="bottom-approaching" to="left-exit" type="L0-HDV"/>
    <trip id="L0-HDV-250" depart="235.00" from="right-approaching" to="left-exit" type="L0-HDV"/>
    <trip id="L0-HDV-251" depart="235.94" from="right-approaching" to="bottom-exit" type="L0-HDV"/>
    <trip id="L0-HDV-252" depart="236.88" from="bottom-approaching" to="left-exit" type="L0-HDV"/>
    <trip id="L0-HDV-253" depart="237.82" from="right-approaching" to="right-exit" type="L0-HDV"/>
    <trip id="L0-HDV-254" depart="238.76" from="right-approaching" to="left-exit" type="L0-HDV"/>
    <trip id="L0-HDV-255" depart="239.70" from="right-approaching" to="left-exit" type="L0-HDV"/>
    <trip id="L0-HDV-256" depart="240.64" from="left-long-approaching" to="bottom-exit" type="L0-HDV"/>
    <trip id="L0-HDV-257" depart="241.58" from="top-approaching" to="bottom-exit" type="L0-HDV"/>
    <trip id="L0-HDV-258" depart="242.52" from="top-approaching" to="top-exit" type="L0-HDV"/>
    <trip id="L0-HDV-259" depart="243.46" from="bottom-approaching" to="left-exit" type="L0-HDV"/>
    <trip id="L0-HDV-260" depart="244.40" from="top-approaching" to="top-exit" type="L0-HDV"/>
    <trip id="L0-HDV-261" depart="245.34" from="left-long-approaching" to="left-exit" type="L0-HDV"/>
    <trip id="L0-HDV-262" depart="246.28" from="bottom-approaching" to="top-exit" type="L0-HDV"/>
    <trip id="L0-HDV-263" depart="247.22" from="bottom-approaching" to="right-exit" type="L0-HDV"/>
    <trip id="L0-HDV-264" depart="248.16" from="bottom-approaching" to="right-exit" type="L0-HDV"/>
    <trip id="L0-HDV-265" depart="249.10" from="top-approaching" to="bottom-exit" type="L0-HDV"/>
    <trip id="L0-HDV-266" depart="250.04" from="top-approaching" to="right-exit" type="L0-HDV"/>
    <trip id="L0-HDV-267" depart="250.98" from="top-approaching" to="right-exit" type="L0-HDV"/>
    <trip id="L0-HDV-268" depart="251.92" from="bottom-approaching" to="top-exit" type="L0-HDV"/>
    <trip id="L0-HDV-269" depart="252.86" from="left-long-approaching" to="bottom-exit" type="L0-HDV"/>
    <trip id="L0-HDV-270" depart="253.80" from="bottom-approaching" to="left-exit" type="L0-HDV"/>
    <trip id="L0-HDV-271" depart="254.74" from="left-long-approaching" to="left-exit" type="L0-HDV"/>
    <trip id="L0-HDV-272" depart="255.68" from="bottom-approaching" to="left-exit" type="L0-HDV"/>
    <trip id="L0-HDV-273" depart="256.62" from="left-long-approaching" to="top-exit" type="L0-HDV"/>
    <trip id="L0-HDV-274" depart="257.56" from="bottom-approaching" to="right-exit" type="L0-HDV"/>
    <trip id="L0-HDV-275" depart="258.50" from="top-approaching" to="bottom-exit" type="L0-HDV"/>
    <trip id="L0-HDV-276" depart="259.44" from="top-approaching" to="right-exit" type="L0-HDV"/>
    <trip id="L0-HDV-277" depart="260.38" from="top-approaching" to="left-exit" type="L0-HDV"/>
    <trip id="L0-HDV-278" depart="261.32" from="left-long-approaching" to="left-exit" type="L0-HDV"/>
    <trip id="L0-HDV-279" depart="262.26" from="top-approaching" to="right-exit" type="L0-HDV"/>
    <trip id="L0-HDV-280" depart="263.20" from="left-long-approaching" to="left-exit" type="L0-HDV"/>
    <trip id="L0-HDV-281" depart="264.14" from="left-long-approaching" to="bottom-exit" type="L0-HDV"/>
    <trip id="L0-HDV-282" depart="265.08" from="bottom-approaching" to="top-exit" type="L0-HDV"/>
    <trip id="L0-HDV-283" depart="266.02" from="left-long-approaching" to="top-exit" type="L0-HDV"/>
    <trip id="L0-HDV-284" depart="266.96" from="left-long-approaching" to="left-exit" type="L0-HDV"/>
    <trip id="L0-HDV-285" depart="267.90" from="right-approaching" to="bottom-exit" type="L0-HDV"/>
    <trip id="L0-HDV-286" depart="268.84" from="left-long-approaching" to="top-exit" type="L0-HDV"/>
    <trip id="L0-HDV-287" depart="269.78" from="top-approaching" to="top-exit" type="L0-HDV"/>
    <trip id="L0-HDV-288" depart="270.72" from="right-approaching" to="top-exit" type="L0-HDV"/>
    <trip id="L0-HDV-289" depart="271.66" from="top-approaching" to="right-exit" type="L0-HDV"/>
    <trip id="L0-HDV-290" depart="272.60" from="right-approaching" to="bottom-exit" type="L0-HDV"/>
    <trip id="L0-HDV-291" depart="273.54" from="right-approaching" to="left-exit" type="L0-HDV"/>
    <trip id="L0-HDV-292" depart="274.48" from="top-approaching" to="right-exit" type="L0-HDV"/>
    <trip id="L0-HDV-293" depart="275.42" from="left-long-approaching" to="bottom-exit" type="L0-HDV"/>
    <trip id="L0-HDV-294" depart="276.36" from="top-approaching" to="bottom-exit" type="L0-HDV"/>
    <trip id="L0-HDV-295" depart="277.30" from="left-long-approaching" to="left-exit" type="L0-HDV"/>
    <trip id="L0-HDV-296" depart="278.24" from="left-long-approaching" to="right-exit" type="L0-HDV"/>
    <trip id="L0-HDV-297" depart="279.18" from="top-approaching" to="left-exit" type="L0-HDV"/>
    <trip id="L0-HDV-298" depart="280.12" from="right-approaching" to="left-exit" type="L0-HDV"/>