<?xml version="1.0" encoding="UTF-8"?>
<!-- generated on 2021-02-26 13:48:32.510448 by $Id$ v1_8_0+0044-4820708f3d
  options: -n Roadworks/RoadworksIntersection.net.xml <doubleminus>fringe-factor 40 -r Roadworks/BaselineHDV/Route-Files/L0-HDV-Route.rou.xml <doubleminus>trip-attributes=type="L0-HDV" -l <doubleminus>prefix L0-HDV- <doubleminus>seed 0 -p 1.86
-->
<routes xmlns:xsi="http://www.w3.org/2001/XMLSchema-instance" xsi:noNamespaceSchemaLocation="http://sumo.dlr.de/xsd/routes_file.xsd">
    <trip id="L0-HDV-0" depart="0.00" from="top-approaching" to="top-exit" type="L0-HDV"/>
    <trip id="L0-HDV-1" depart="1.86" from="left-long-approaching" to="left-exit" type="L0-HDV"/>
    <trip id="L0-HDV-2" depart="3.72" from="right-approaching" to="left-exit" type="L0-HDV"/>
    <trip id="L0-HDV-3" depart="5.58" from="top-approaching" to="left-exit" type="L0-HDV"/>
    <trip id="L0-HDV-4" depart="7.44" from="left-long-approaching" to="right-exit" type="L0-HDV"/>
    <trip id="L0-HDV-5" depart="9.30" from="top-approaching" to="preparation" type="L0-HDV"/>
    <trip id="L0-HDV-6" depart="11.16" from="left-long-approaching" to="top-exit" type="L0-HDV"/>
    <trip id="L0-HDV-7" depart="13.02" from="right-approaching" to="left-exit" type="L0-HDV"/>
    <trip id="L0-HDV-8" depart="14.88" from="top-approaching" to="top-exit" type="L0-HDV"/>
    <trip id="L0-HDV-9" depart="16.74" from="top-approaching" to="top-exit" type="L0-HDV"/>
    <trip id="L0-HDV-10" depart="18.60" from="left-long-approaching" to="right-exit" type="L0-HDV"/>
    <trip id="L0-HDV-11" depart="20.46" from="top-approaching" to="right-exit" type="L0-HDV"/>
    <trip id="L0-HDV-12" depart="22.32" from="left-long-approaching" to="bottom-exit" type="L0-HDV"/>
    <trip id="L0-HDV-13" depart="24.18" from="left-long-approaching" to="right-exit" type="L0-HDV"/>
    <trip id="L0-HDV-14" depart="26.04" from="top-approaching" to="top-exit" type="L0-HDV"/>
    <trip id="L0-HDV-15" depart="27.90" from="left-long-approaching" to="top-exit" type="L0-HDV"/>
    <trip id="L0-HDV-16" depart="29.76" from="left-long-approaching" to="top-exit" type="L0-HDV"/>
    <trip id="L0-HDV-17" depart="31.62" from="right-approaching" to="bottom-exit" type="L0-HDV"/>
    <trip id="L0-HDV-18" depart="33.48" from="right-approaching" to="left-exit" type="L0-HDV"/>
    <trip id="L0-HDV-19" depart="35.34" from="top-approaching" to="right-exit" type="L0-HDV"/>
    <trip id="L0-HDV-20" depart="37.20" from="bottom-approaching" to="left-exit" type="L0-HDV"/>
    <trip id="L0-HDV-21" depart="39.06" from="top-approaching" to="bottom-exit" type="L0-HDV"/>
    <trip id="L0-HDV-22" depart="40.92" from="left-long-approaching" to="top-exit" type="L0-HDV"/>
    <trip id="L0-HDV-23" depart="42.78" from="bottom-approaching" to="right-exit" type="L0-HDV"/>
    <trip id="L0-HDV-24" depart="44.64" from="bottom-approaching" to="top-exit" type="L0-HDV"/>
    <trip id="L0-HDV-25" depart="46.50" from="top-approaching" to="left-exit" type="L0-HDV"/>
    <trip id="L0-HDV-26" depart="48.36" from="bottom-approaching" to="left-exit" type="L0-HDV"/>
    <trip id="L0-HDV-27" depart="50.22" from="right-approaching" to="top-exit" type="L0-HDV"/>
    <trip id="L0-HDV-28" depart="52.08" from="bottom-approaching" to="right-exit" type="L0-HDV"/>
    <trip id="L0-HDV-29" depart="53.94" from="right-approaching" to="right-exit" type="L0-HDV"/>
    <trip id="L0-HDV-30" depart="55.80" from="top-approaching" to="right-exit" type="L0-HDV"/>
    <trip id="L0-HDV-31" depart="57.66" from="top-approaching" to="right-exit" type="L0-HDV"/>
    <trip id="L0-HDV-32" depart="59.52" from="right-approaching" to="left-exit" type="L0-HDV"/>
    <trip id="L0-HDV-33" depart="61.38" from="right-approaching" to="left-exit" type="L0-HDV"/>
    <trip id="L0-HDV-34" depart="63.24" from="right-approaching" to="left-exit" type="L0-HDV"/>
    <trip id="L0-HDV-35" depart="65.10" from="bottom-approaching" to="bottom-exit" type="L0-HDV"/>
    <trip id="L0-HDV-36" depart="66.96" from="right-approaching" to="right-exit" type="L0-HDV"/>
    <trip id="L0-HDV-37" depart="68.82" from="left-long-approaching" to="bottom-exit" type="L0-HDV"/>
    <trip id="L0-HDV-38" depart="70.68" from="top-approaching" to="top-exit" type="L0-HDV"/>
    <trip id="L0-HDV-39" depart="72.54" from="top-approaching" to="top-exit" type="L0-HDV"/>
    <trip id="L0-HDV-40" depart="74.40" from="top-approaching" to="top-exit" type="L0-HDV"/>
    <trip id="L0-HDV-41" depart="76.26" from="right-approaching" to="left-exit" type="L0-HDV"/>
    <trip id="L0-HDV-42" depart="78.12" from="right-approaching" to="left-exit" type="L0-HDV"/>
    <trip id="L0-HDV-43" depart="79.98" from="top-approaching" to="top-exit" type="L0-HDV"/>
    <trip id="L0-HDV-44" depart="81.84" from="top-approaching" to="right-exit" type="L0-HDV"/>
    <trip id="L0-HDV-45" depart="83.70" from="top-approaching" to="right-exit" type="L0-HDV"/>
    <trip id="L0-HDV-46" depart="85.56" from="left-long-approaching" to="right-exit" type="L0-HDV"/>
    <trip id="L0-HDV-47" depart="87.42" from="top-approaching" to="top-exit" type="L0-HDV"/>
    <trip id="L0-HDV-48" depart="89.28" from="top-approaching" to="bottom-exit" type="L0-HDV"/>
    <trip id="L0-HDV-49" depart="91.14" from="right-approaching" to="left-exit" type="L0-HDV"/>
    <trip id="L0-HDV-50" depart="93.00" from="right-approaching" to="top-exit" type="L0-HDV"/>
    <trip id="L0-HDV-51" depart="94.86" from="bottom-approaching" to="right-exit" type="L0-HDV"/>
    <trip id="L0-HDV-52" depart="96.72" from="bottom-approaching" to="bottom-exit" type="L0-HDV"/>
    <trip id="L0-HDV-53" depart="98.58" from="top-approaching" to="left-exit" type="L0-HDV"/>
    <trip id="L0-HDV-54" depart="100.44" from="top-approaching" to="bottom-exit" type="L0-HDV"/>
    <trip id="L0-HDV-55" depart="102.30" from="bottom-approaching" to="right-exit" type="L0-HDV"/>
    <trip id="L0-HDV-56" depart="104.16" from="bottom-approaching" to="right-exit" type="L0-HDV"/>
    <trip id="L0-HDV-57" depart="106.02" from="top-approaching" to="right-exit" type="L0-HDV"/>
    <trip id="L0-HDV-58" depart="107.88" from="right-approaching" to="bottom-exit" type="L0-HDV"/>
    <trip id="L0-HDV-59" depart="109.74" from="right-approaching" to="right-exit" type="L0-HDV"/>
    <trip id="L0-HDV-60" depart="111.60" from="right-approaching" to="left-exit" type="L0-HDV"/>
    <trip id="L0-HDV-61" depart="113.46" from="left-long-approaching" to="top-exit" type="L0-HDV"/>
    <trip id="L0-HDV-62" depart="115.32" from="bottom-approaching" to="bottom-exit" type="L0-HDV"/>
    <trip id="L0-HDV-63" depart="117.18" from="top-approaching" to="bottom-exit" type="L0-HDV"/>
    <trip id="L0-HDV-64" depart="119.04" from="bottom-approaching" to="bottom-exit" type="L0-HDV"/>
    <trip id="L0-HDV-65" depart="120.90" from="top-approaching" to="top-exit" type="L0-HDV"/>
    <trip id="L0-HDV-66" depart="122.76" from="bottom-approaching" to="left-exit" type="L0-HDV"/>
    <trip id="L0-HDV-67" depart="124.62" from="bottom-approaching" to="left-exit" type="L0-HDV"/>
    <trip id="L0-HDV-68" depart="126.48" from="bottom-approaching" to="right-exit" type="L0-HDV"/>
    <trip id="L0-HDV-69" depart="128.34" from="left-long-approaching" to="bottom-exit" type="L0-HDV"/>
    <trip id="L0-HDV-70" depart="130.20" from="preparation" to="bottom-exit" type="L0-HDV"/>
    <trip id="L0-HDV-71" depart="132.06" from="bottom-approaching" to="top-exit" type="L0-HDV"/>
    <trip id="L0-HDV-72" depart="133.92" from="bottom-approaching" to="left-exit" type="L0-HDV"/>
    <trip id="L0-HDV-73" depart="135.78" from="right-approaching" to="top-exit" type="L0-HDV"/>
    <trip id="L0-HDV-74" depart="137.64" from="top-approaching" to="bottom-exit" type="L0-HDV"/>
    <trip id="L0-HDV-75" depart="139.50" from="right-approaching" to="top-exit" type="L0-HDV"/>
    <trip id="L0-HDV-76" depart="141.36" from="bottom-approaching" to="right-exit" type="L0-HDV"/>
    <trip id="L0-HDV-77" depart="143.22" from="top-approaching" to="left-exit" type="L0-HDV"/>
    <trip id="L0-HDV-78" depart="145.08" from="left-long-approaching" to="right-exit" type="L0-HDV"/>
    <trip id="L0-HDV-79" depart="146.94" from="left-long-approaching" to="bottom-exit" type="L0-HDV"/>
    <trip id="L0-HDV-80" depart="148.80" from="left-long-approaching" to="left-exit" type="L0-HDV"/>
    <trip id="L0-HDV-81" depart="150.66" from="right-approaching" to="right-exit" type="L0-HDV"/>
    <trip id="L0-HDV-82" depart="152.52" from="left-long-approaching" to="left-exit" type="L0-HDV"/>
    <trip id="L0-HDV-83" depart="154.38" from="top-approaching" to="left-exit" type="L0-HDV"/>
    <trip id="L0-HDV-84" depart="156.24" from="right-approaching" to="bottom-exit" type="L0-HDV"/>
    <trip id="L0-HDV-85" depart="158.10" from="right-approaching" to="left-exit" type="L0-HDV"/>
    <trip id="L0-HDV-86" depart="159.96" from="bottom-approaching" to="left-exit" type="L0-HDV"/>
    <trip id="L0-HDV-87" depart="161.82" from="bottom-approaching" to="top-exit" type="L0-HDV"/>
    <trip id="L0-HDV-88" depart="163.68" from="left-long-approaching" to="left-exit" type="L0-HDV"/>
    <trip id="L0-HDV-89" depart="165.54" from="left-long-approaching" to="top-exit" type="L0-HDV"/>
    <trip id="L0-HDV-90" depart="167.40" from="right-approaching" to="right-exit" type="L0-HDV"/>
    <trip id="L0-HDV-91" depart="169.26" from="right-approaching" to="left-exit" type="L0-HDV"/>
    <trip id="L0-HDV-92" depart="171.12" from="left-long-approaching" to="right-exit" type="L0-HDV"/>
    <trip id="L0-HDV-93" depart="172.98" from="bottom-approaching" to="bottom-exit" type="L0-HDV"/>
    <trip id="L0-HDV-94" depart="174.84" from="left-long-approaching" to="bottom-exit" type="L0-HDV"/>
    <trip id="L0-HDV-95" depart="176.70" from="right-approaching" to="left-exit" type="L0-HDV"/>
    <trip id="L0-HDV-96" depart="178.56" from="top-approaching" to="right-exit" type="L0-HDV"/>
    <trip id="L0-HDV-97" depart="180.42" from="left-long-approaching" to="left-exit" type="L0-HDV"/>
    <trip id="L0-HDV-98" depart="182.28" from="right-approaching" to="left-exit" type="L0-HDV"/>
    <trip id="L0-HDV-99" depart="184.14" from="right-approaching" to="bottom-exit" type="L0-HDV"/>
    <trip id="L0-HDV-100" depart="186.00" from="left-long-approaching" to="left-exit" type="L0-HDV"/>
    <trip id="L0-HDV-101" depart="187.86" from="bottom-approaching" to="right-exit" type="L0-HDV"/>
    <trip id="L0-HDV-102" depart="189.72" from="left-long-approaching" to="right-exit" type="L0-HDV"/>
    <trip id="L0-HDV-103" depart="191.58" from="top-approaching" to="top-exit" type="L0-HDV"/>
    <trip id="L0-HDV-104" depart="193.44" from="left-long-approaching" to="left-exit" type="L0-HDV"/>
    <trip id="L0-HDV-105" depart="195.30" from="left-long-approaching" to="top-exit" type="L0-HDV"/>
    <trip id="L0-HDV-106" depart="197.16" from="top-approaching" to="top-exit" type="L0-HDV"/>
    <trip id="L0-HDV-107" depart="199.02" from="bottom-approaching" to="top-exit" type="L0-HDV"/>
    <trip id="L0-HDV-108" depart="200.88" from="right-approaching" to="bottom-exit" type="L0-HDV"/>
    <trip id="L0-HDV-109" depart="202.74" from="right-approaching" to="top-exit" type="L0-HDV"/>
    <trip id="L0-HDV-110" depart="204.60" from="left-long-approaching" to="right-exit" type="L0-HDV"/>
    <trip id="L0-HDV-111" depart="206.46" from="left-long-approaching" to="bottom-exit" type="L0-HDV"/>
    <trip id="L0-HDV-112" depart="208.32" from="right-approaching" to="bottom-exit" type="L0-HDV"/>
    <trip id="L0-HDV-113" depart="210.18" from="top-approaching" to="right-exit" type="L0-HDV"/>
    <trip id="L0-HDV-114" depart="212.04" from="bottom-approaching" to="bottom-exit" type="L0-HDV"/>
    <trip id="L0-HDV-115" depart="213.90" from="right-approaching" to="top-exit" type="L0-HDV"/>
    <trip id="L0-HDV-116" depart="215.76" from="left-long-approaching" to="top-exit" type="L0-HDV"/>
    <trip id="L0-HDV-117" depart="217.62" from="bottom-approaching" to="top-exit" type="L0-HDV"/>
    <trip id="L0-HDV-118" depart="219.48" from="left-long-approaching" to="bottom-exit" type="L0-HDV"/>
    <trip id="L0-HDV-119" depart="221.34" from="left-long-approaching" to="left-exit" type="L0-HDV"/>
    <trip id="L0-HDV-120" depart="223.20" from="top-approaching" to="top-exit" type="L0-HDV"/>
    <trip id="L0-HDV-121" depart="225.06" from="bottom-approaching" to="right-exit" type="L0-HDV"/>
    <trip id="L0-HDV-122" depart="226.92" from="right-approaching" to="left-exit" type="L0-HDV"/>
    <trip id="L0-HDV-123" depart="228.78" from="top-approaching" to="left-exit" type="L0-HDV"/>
    <trip id="L0-HDV-124" depart="230.64" from="bottom-approaching" to="bottom-exit" type="L0-HDV"/>
    <trip id="L0-HDV-125" depart="232.50" from="right-approaching" to="right-exit" type="L0-HDV"/>
    <trip id="L0-HDV-126" depart="234.36" from="top-approaching" to="top-exit" type="L0-HDV"/>
    <trip id="L0-HDV-127" depart="236.22" from="top-approaching" to="bottom-exit" type="L0-HDV"/>
    <trip id="L0-HDV-128" depart="238.08" from="right-approaching" to="right-exit" type="L0-HDV"/>
    <trip id="L0-HDV-129" depart="239.94" from="right-approaching" to="right-exit" type="L0-HDV"/>
    <trip id="L0-HDV-130" depart="241.80" from="top-approaching" to="right-exit" type="L0-HDV"/>
    <trip id="L0-HDV-131" depart="243.66" from="left-long-approaching" to="right-exit" type="L0-HDV"/>
    <trip id="L0-HDV-132" depart="245.52" from="bottom-approaching" to="right-exit" type="L0-HDV"/>
    <trip id="L0-HDV-133" depart="247.38" from="bottom-approaching" to="bottom-exit" type="L0-HDV"/>
    <trip id="L0-HDV-134" depart="249.24" from="left-long-approaching" to="top-exit" type="L0-HDV"/>
    <trip id="L0-HDV-135" depart="251.10" from="right-approaching" to="left-exit" type="L0-HDV"/>
    <trip id="L0-HDV-136" depart="252.96" from="right-approaching" to="bottom-exit" type="L0-HDV"/>
    <trip id="L0-HDV-137" depart="254.82" from="bottom-approaching" to="top-exit" type="L0-HDV"/>
    <trip id="L0-HDV-138" depart="256.68" from="left-long-approaching" to="left-exit" type="L0-HDV"/>
    <trip id="L0-HDV-139" depart="258.54" from="right-approaching" to="left-exit" type="L0-HDV"/>
    <trip id="L0-HDV-140" depart="260.40" from="left-long-approaching" to="bottom-exit" type="L0-HDV"/>
    <trip id="L0-HDV-141" depart="262.26" from="bottom-approaching" to="bottom-exit" type="L0-HDV"/>
    <trip id="L0-HDV-142" depart="264.12" from="right-approaching" to="bottom-exit" type="L0-HDV"/>
    <trip id="L0-HDV-143" depart="265.98" from="left-long-approaching" to="left-exit" type="L0-HDV"/>
    <trip id="L0-HDV-144" depart="267.84" from="left-long-approaching" to="bottom-exit" type="L0-HDV"/>
    <trip id="L0-HDV-145" depart="269.70" from="top-approaching" to="left-exit" type="L0-HDV"/>
    <trip id="L0-HDV-146" depart="271.56" from="top-approaching" to="top-exit" type="L0-HDV"/>
    <trip id="L0-HDV-147" depart="273.42" from="left-long-approaching" to="left-exit" type="L0-HDV"/>
    <trip id="L0-HDV-148" depart="275.28" from="right-approaching" to="left-exit" type="L0-HDV"/>
    <trip id="L0-HDV-149" depart="277.14" from="left-long-approaching" to="right-exit" type="L0-HDV"/>
    <trip id="L0-HDV-150" depart="279.00" from="top-approaching" to="top-exit" type="L0-HDV"/>
    <trip id="L0-HDV-151" depart="280.86" from="right-approaching" to="left-exit" type="L0-HDV"/>
    <trip id="L0-HDV-152" depart="282.72" from="top-approaching" to="right-exit" type="L0-HDV"/>
    <trip id="L0-HDV-153" depart="284.58" from="bottom-approaching" to="bottom-exit" type="L0-HDV"/>
    <trip id="L0-HDV-154" depart="286.44" from="right-approaching" to="bottom-exit" type="L0-HDV"/>
    <trip id="L0-HDV-155" depart="288.30" from="bottom-approaching" to="left-exit" type="L0-HDV"/>
    <trip id="L0-HDV-156" depart="290.16" from="right-approaching" to="left-exit" type="L0-HDV"/>
    <trip id="L0-HDV-157" depart="292.02" from="left-long-approaching" to="right-exit" type="L0-HDV"/>
    <trip id="L0-HDV-158" depart="293.88" from="right-approaching" to="left-exit" type="L0-HDV"/>
    <trip id="L0-HDV-159" depart="295.74" from="left-long-approaching" to="top-exit" type="L0-HDV"/>
    <trip id="L0-HDV-160" depart="297.60" from="left-long-approaching" to="top-exit" type="L0-HDV"/>
    <trip id="L0-HDV-161" depart="299.46" from="left-long-approaching" to="left-exit" type="L0-HDV"/>
    <trip id="L0-HDV-162" depart="301.32" from="bottom-approaching" to="top-exit" type="L0-HDV"/>
    <trip id="L0-HDV-163" depart="303.18" from="right-approaching" to="top-exit" type="L0-HDV"/>
    <trip id="L0-HDV-164" depart="305.04" from="left-long-approaching" to="right-exit" type="L0-HDV"/>
    <trip id="L0-HDV-165" depart="306.90" from="bottom-approaching" to="left-exit" type="L0-HDV"/>
    <trip id="L0-HDV-166" depart="308.76" from="bottom-approaching" to="bottom-exit" type="L0-HDV"/>
    <trip id="L0-HDV-167" depart="310.62" from="top-approaching" to="bottom-exit" type="L0-HDV"/>
    <trip id="L0-HDV-168" depart="312.48" from="bottom-approaching" to="bottom-exit" type="L0-HDV"/>
    <trip id="L0-HDV-169" depart="314.34" from="left-long-approaching" to="right-exit" type="L0-HDV"/>
    <trip id="L0-HDV-170" depart="316.20" from="bottom-approaching" to="top-exit" type="L0-HDV"/>
    <trip id="L0-HDV-171" depart="318.06" from="top-approaching" to="bottom-exit" type="L0-HDV"/>
    <trip id="L0-HDV-172" depart="319.92" from="left-long-approaching" to="right-exit" type="L0-HDV"/>
    <trip id="L0-HDV-173" depart="321.78" from="top-approaching" to="left-exit" type="L0-HDV"/>
    <trip id="L0-HDV-174" depart="323.64" from="top-approaching" to="left-exit" type="L0-HDV"/>
    <trip id="L0-HDV-175" depart="325.50" from="left-short-approaching" to="preparation" type="L0-HDV"/>
    <trip id="L0-HDV-176" depart="327.36" from="right-approaching" to="bottom-exit" type="L0-HDV"/>
    <trip id="L0-HDV-177" depart="329.22" from="right-approaching" to="bottom-exit" type="L0-HDV"/>
    <trip id="L0-HDV-178" depart="331.08" from="left-long-approaching" to="top-exit" type="L0-HDV"/>
    <trip id="L0-HDV-179" depart="332.94" from="top-approaching" to="top-exit" type="L0-HDV"/>
    <trip id="L0-HDV-180" depart="334.80" from="bottom-approaching" to="bottom-exit" type="L0-HDV"/>
    <trip id="L0-HDV-181" depart="336.66" from="left-long-approaching" to="top-exit" type="L0-HDV"/>
    <trip id="L0-HDV-182" depart="338.52" from="top-approaching" to="right-exit" type="L0-HDV"/>
    <trip id="L0-HDV-183" depart="340.38" from="right-approaching" to="top-exit" type="L0-HDV"/>
    <trip id="L0-HDV-184" depart="342.24" from="bottom-approaching" to="bottom-exit" type="L0-HDV"/>
    <trip id="L0-HDV-185" depart="344.10" from="top-approaching" to="bottom-exit" type="L0-HDV"/>
    <trip id="L0-HDV-186" depart="345.96" from="bottom-approaching" to="bottom-exit" type="L0-HDV"/>
    <trip id="L0-HDV-187" depart="347.82" from="bottom-approaching" to="top-exit" type="L0-HDV"/>
    <trip id="L0-HDV-188" depart="349.68" from="left-long-approaching" to="bottom-exit" type="L0-HDV"/>
    <trip id="L0-HDV-189" depart="351.54" from="bottom-approaching" to="right-exit" type="L0-HDV"/>
    <trip id="L0-HDV-190" depart="353.40" from="top-approaching" to="remerging-lane" type="L0-HDV"/>
    <trip id="L0-HDV-191" depart="355.26" from="top-approaching" to="preparation" type="L0-HDV"/>
    <trip id="L0-HDV-192" depart="357.12" from="right-approaching" to="right-exit" type="L0-HDV"/>
    <trip id="L0-HDV-193" depart="358.98" from="top-approaching" to="top-exit" type="L0-HDV"/>
    <trip id="L0-HDV-194" depart="360.84" from="top-approaching" to="right-exit" type="L0-HDV"/>
    <trip id="L0-HDV-195" depart="362.70" from="top-approaching" to="bottom-exit" type="L0-HDV"/>
    <trip id="L0-HDV-196" depart="364.56" from="right-approaching" to="right-exit" type="L0-HDV"/>
    <trip id="L0-HDV-197" depart="366.42" from="top-approaching" to="left-exit" type="L0-HDV"/>
    <trip id="L0-HDV-198" depart="368.28" from="top-approaching" to="left-exit" type="L0-HDV"/>
    <trip id="L0-HDV-199" depart="370.14" from="right-approaching" to="top-exit" type="L0-HDV"/>
    <trip id="L0-HDV-200" depart="372.00" from="top-approaching" to="right-exit" type="L0-HDV"/>
    <trip id="L0-HDV-201" depart="373.86" from="bottom-approaching" to="bottom-exit" type="L0-HDV"/>
    <trip id="L0-HDV-202" depart="375.72" from="right-approaching" to="left-exit" type="L0-HDV"/>
    <trip id="L0-HDV-203" depart="377.58" from="bottom-approaching" to="top-exit" type="L0-HDV"/>
    <trip id="L0-HDV-204" depart="379.44" from="top-approaching" to="left-exit" type="L0-HDV"/>
    <trip id="L0-HDV-205" depart="381.30" from="left-long-approaching" to="top-exit" type="L0-HDV"/>
    <trip id="L0-HDV-206" depart="383.16" from="bottom-approaching" to="right-exit" type="L0-HDV"/>
    <trip id="L0-HDV-207" depart="385.02" from="bottom-approaching" to="left-exit" type="L0-HDV"/>
    <trip id="L0-HDV-208" depart="386.88" from="top-approaching" to="bottom-exit" type="L0-HDV"/>
    <trip id="L0-HDV-209" depart="388.74" from="bottom-approaching" to="left-exit" type="L0-HDV"/>
    <trip id="L0-HDV-210" depart="390.60" from="left-long-approaching" to="top-exit" type="L0-HDV"/>
    <trip id="L0-HDV-211" depart="392.46" from="right-approaching" to="right-exit" type="L0-HDV"/>
    <trip id="L0-HDV-212" depart="394.32" from="bottom-approaching" to="top-exit" type="L0-HDV"/>
    <trip id="L0-HDV-213" depart="396.18" from="left-long-approaching" to="right-exit" type="L0-HDV"/>
    <trip id="L0-HDV-214" depart="398.04" from="left-long-approaching" to="bottom-exit" type="L0-HDV"/>
    <trip id="L0-HDV-215" depart="399.90" from="left-long-approaching" to="bottom-exit" type="L0-HDV"/>
    <trip id="L0-HDV-216" depart="401.76" from="bottom-approaching" to="right-exit" type="L0-HDV"/>
    <trip id="L0-HDV-217" depart="403.62" from="right-approaching" to="bottom-exit" type="L0-HDV"/>
    <trip id="L0-HDV-218" depart="405.48" from="right-approaching" to="left-exit" type="L0-HDV"/>
    <trip id="L0-HDV-219" depart="407.34" from="left-long-approaching" to="top-exit" type="L0-HDV"/>
    <trip id="L0-HDV-220" depart="409.20" from="left-long-approaching" to="top-exit" type="L0-HDV"/>
    <trip id="L0-HDV-221" depart="411.06" from="right-approaching" to="left-exit" type="L0-HDV"/>
    <trip id="L0-HDV-222" depart="412.92" from="right-approaching" to="left-exit" type="L0-HDV"/>
    <trip id="L0-HDV-223" depart="414.78" from="bottom-approaching" to="right-exit" type="L0-HDV"/>
    <trip id="L0-HDV-224" depart="416.64" from="right-approaching" to="top-exit" type="L0-HDV"/>
    <trip id="L0-HDV-225" depart="418.50" from="bottom-approaching" to="top-exit" type="L0-HDV"/>
    <trip id="L0-HDV-226" depart="420.36" from="top-approaching" to="top-exit" type="L0-HDV"/>
    <trip id="L0-HDV-227" depart="422.22" from="top-approaching" to="right-exit" type="L0-HDV"/>
    <trip id="L0-HDV-228" depart="424.08" from="top-approaching" to="right-exit" type="L0-HDV"/>
    <trip id="L0-HDV-229" depart="425.94" from="top-approaching" to="bottom-exit" type="L0-HDV"/>
    <trip id="L0-HDV-230" depart="427.80" from="top-approaching" to="left-exit" type="L0-HDV"/>
    <trip id="L0-HDV-231" depart="429.66" from="top-approaching" to="left-exit" type="L0-HDV"/>
    <trip id="L0-HDV-232" depart="431.52" from="top-approaching" to="bottom-exit" type="L0-HDV"/>
    <trip id="L0-HDV-233" depart="433.38" from="bottom-approaching" to="top-exit" type="L0-HDV"/>
    <trip id="L0-HDV-234" depart="435.24" from="left-long-approaching" to="top-exit" type="L0-HDV"/>
    <trip id="L0-HDV-235" depart="437.10" from="top-approaching" to="right-exit" type="L0-HDV"/>
    <trip id="L0-HDV-236" depart="438.96" from="right-approaching" to="bottom-exit" type="L0-HDV"/>
    <trip id="L0-HDV-237" depart="440.82" from="bottom-approaching" to="top-exit" type="L0-HDV"/>
    <trip id="L0-HDV-238" depart="442.68" from="top-approaching" to="top-exit" type="L0-HDV"/>
    <trip id="L0-HDV-239" depart="444.54" from="right-approaching" to="left-exit" type="L0-HDV"/>
    <trip id="L0-HDV-240" depart="446.40" from="left-long-approaching" to="bottom-exit" type="L0-HDV"/>
    <trip id="L0-HDV-241" depart="448.26" from="left-long-approaching" to="right-exit" type="L0-HDV"/>
    <trip id="L0-HDV-242" depart="450.12" from="top-approaching" to="top-exit" type="L0-HDV"/>
    <trip id="L0-HDV-243" depart="451.98" from="left-long-approaching" to="bottom-exit" type="L0-HDV"/>
    <trip id="L0-HDV-244" depart="453.84" from="top-approaching" to="right-exit" type="L0-HDV"/>
    <trip id="L0-HDV-245" depart="455.70" from="bottom-approaching" to="left-exit" type="L0-HDV"/>
    <trip id="L0-HDV-246" depart="457.56" from="right-approaching" to="bottom-exit" type="L0-HDV"/>
    <trip id="L0-HDV-247" depart="459.42" from="top-approaching" to="top-exit" type="L0-HDV"/>
    <trip id="L0-HDV-248" depart="461.28" from="right-approaching" to="bottom-exit" type="L0-HDV"/>
    <trip id="L0-HDV-249" depart="463.14" from="bottom-approaching" to="left-exit" type="L0-HDV"/>
    <trip id="L0-HDV-250" depart="465.00" from="bottom-approaching" to="left-exit" type="L0-HDV"/>
    <trip id="L0-HDV-251" depart="466.86" from="bottom-approaching" to="top-exit" type="L0-HDV"/>
    <trip id="L0-HDV-252" depart="468.72" from="top-approaching" to="bottom-exit" type="L0-HDV"/>
    <trip id="L0-HDV-253" depart="470.58" from="top-approaching" to="bottom-exit" type="L0-HDV"/>
    <trip id="L0-HDV-254" depart="472.44" from="bottom-approaching" to="right-exit" type="L0-HDV"/>
    <trip id="L0-HDV-255" depart="474.30" from="top-approaching" to="bottom-exit" type="L0-HDV"/>
    <trip id="L0-HDV-256" depart="476.16" from="bottom-approaching" to="left-exit" type="L0-HDV"/>
    <trip id="L0-HDV-257" depart="478.02" from="bottom-approaching" to="right-exit" type="L0-HDV"/>
    <trip id="L0-HDV-258" depart="479.88" from="top-approaching" to="bottom-exit" type="L0-HDV"/>
    <trip id="L0-HDV-259" depart="481.74" from="bottom-approaching" to="left-exit" type="L0-HDV"/>
    <trip id="L0-HDV-260" depart="483.60" from="top-approaching" to="bottom-exit" type="L0-HDV"/>
    <trip id="L0-HDV-261" depart="485.46" from="top-approaching" to="left-exit" type="L0-HDV"/>
    <trip id="L0-HDV-262" depart="487.32" from="left-long-approaching" to="left-exit" type="L0-HDV"/>
    <trip id="L0-HDV-263" depart="489.18" from="top-approaching" to="top-exit" type="L0-HDV"/>
    <trip id="L0-HDV-264" depart="491.04" from="right-approaching" to="bottom-exit" type="L0-HDV"/>
    <trip id="L0-HDV-265" depart="492.90" from="top-approaching" to="bottom-exit" type="L0-HDV"/>
    <trip id="L0-HDV-266" depart="494.76" from="right-approaching" to="bottom-exit" type="L0-HDV"/>
    <trip id="L0-HDV-267" depart="496.62" from="top-approaching" to="top-exit" type="L0-HDV"/>
    <trip id="L0-HDV-268" depart="498.48" from="top-approaching" to="left-exit" type="L0-HDV"/>
    <trip id="L0-HDV-269" depart="500.34" from="bottom-approaching" to="top-exit" type="L0-HDV"/>
    <trip id="L0-HDV-270" depart="502.20" from="left-long-approaching" to="left-exit" type="L0-HDV"/>
    <trip id="L0-HDV-271" depart="504.06" from="bottom-approaching" to="bottom-exit" type="L0-HDV"/>
    <trip id="L0-HDV-272" depart="505.92" from="bottom-approaching" to="bottom-exit" type="L0-HDV"/>
    <trip id="L0-HDV-273" depart="507.78" from="bottom-approaching" to="left-exit" type="L0-HDV"/>
    <trip id="L0-HDV-274" depart="509.64" from="right-approaching" to="right-exit" type="L0-HDV"/>
    <trip id="L0-HDV-275" depart="511.50" from="bottom-approaching" to="left-exit" type="L0-HDV"/>
    <trip id="L0-HDV-276" depart="513.36" from="right-approaching" to="bottom-exit" type="L0-HDV"/>
    <trip id="L0-HDV-277" depart="515.22" from="left-long-approaching" to="left-exit" type="L0-HDV"/>
    <trip id="L0-HDV-278" depart="517.08" from="top-approaching" to="bottom-exit" type="L0-HDV"/>
    <trip id="L0-HDV-279" depart="518.94" from="left-long-approaching" to="left-exit" type="L0-HDV"/>
    <trip id="L0-HDV-280" depart="520.80" from="right-approaching" to="left-exit" type="L0-HDV"/>
    <trip id="L0-HDV-281" depart="522.66" from="bottom-approaching" to="left-exit" type="L0-HDV"/>
    <trip id="L0-HDV-282" depart="524.52" from="left-long-approaching" to="top-exit" type="L0-HDV"/>
    <trip id="L0-HDV-283" depart="526.38" from="top-approaching" to="left-exit" type="L0-HDV"/>
    <trip id="L0-HDV-284" depart="528.24" from="right-approaching" to="right-exit" type="L0-HDV"/>
    <trip id="L0-HDV-285" depart="530.10" from="top-approaching" to="left-exit" type="L0-HDV"/>
    <trip id="L0-HDV-286" depart="531.96" from="left-long-approaching" to="top-exit" type="L0-HDV"/>
    <trip id="L0-HDV-287" depart="533.82" from="left-long-approaching" to="closed-lane" type="L0-HDV"/>
    <trip id="L0-HDV-288" depart="535.68" from="left-long-approaching" to="top-exit" type="L0-HDV"/>
    <trip id="L0-HDV-289" depart="537.54" from="bottom-approaching" to="left-exit" type="L0-HDV"/>
    <trip id="L0-HDV-290" depart="539.40" from="right-approaching" to="left-exit" type="L0-HDV"/>
    <trip id="L0-HDV-291" depart="541.26" from="bottom-approaching" to="bottom-exit" type="L0-HDV"/>
    <trip id="L0-HDV-292" depart="543.12" from="right-approaching" to="right-exit" type="L0-HDV"/>
    <trip id="L0-HDV-293" depart="544.98" from="bottom-approaching" to="left-exit" type="L0-HDV"/>
    <trip id="L0-HDV-294" depart="546.84" from="top-approaching" to="right-exit" type="L0-HDV"/>
    <trip id="L0-HDV-295" depart="548.70" from="right-approaching" to="bottom-exit" type="L0-HDV"/>
    <trip id="L0-HDV-296" depart="550.56" from="right-approaching" to="left-exit" type="L0-HDV"/>
    <trip id="L0-HDV-297" depart="552.42" from="right-approaching" to="top-exit" type="L0-HDV"/>
    <trip id="L0-HDV-298" depart="554.28" from="bottom-approaching" to="top-exit" type="L0-HDV"/>