<?xml version="1.0" encoding="UTF-8"?>
<!-- generated on 2021-04-19 21:04:56.039146 by $Id$ v1_8_0+0044-4820708f3d
  options: -n Collision/CollisionIntersection.net.xml <doubleminus>fringe-factor 40 -r Collision/RealTMSPenetration3/Route-Files/L0-HDV-Route.rou.xml <doubleminus>trip-attributes=type="L0-HDV-" -b 120 -l <doubleminus>prefix L0-HDV- <doubleminus>seed 3 -p 18
-->
<routes xmlns:xsi="http://www.w3.org/2001/XMLSchema-instance" xsi:noNamespaceSchemaLocation="http://sumo.dlr.de/xsd/routes_file.xsd">
    <trip id="L0-HDV-0" depart="120.00" from="bottom-approaching" to="right-exit" type="L0-HDV-"/>
    <trip id="L0-HDV-1" depart="138.00" from="left-long-approaching" to="right-exit" type="L0-HDV-"/>
    <trip id="L0-HDV-2" depart="156.00" from="right-approaching" to="bottom-exit" type="L0-HDV-"/>
    <trip id="L0-HDV-3" depart="174.00" from="bottom-approaching" to="top-exit" type="L0-HDV-"/>
    <trip id="L0-HDV-4" depart="192.00" from="left-long-approaching" to="bottom-exit" type="L0-HDV-"/>
    <trip id="L0-HDV-5" depart="210.00" from="top-approaching" to="left-exit" type="L0-HDV-"/>
    <trip id="L0-HDV-6" depart="228.00" from="top-approaching" to="left-exit" type="L0-HDV-"/>
    <trip id="L0-HDV-7" depart="246.00" from="right-approaching" to="bottom-exit" type="L0-HDV-"/>
    <trip id="L0-HDV-8" depart="264.00" from="right-approaching" to="top-exit" type="L0-HDV-"/>
    <trip id="L0-HDV-9" depart="282.00" from="right-approaching" to="right-exit" type="L0-HDV-"/>
    <trip id="L0-HDV-10" depart="300.00" from="right-approaching" to="bottom-exit" type="L0-HDV-"/>
    <trip id="L0-HDV-11" depart="318.00" from="top-approaching" to="right-exit" type="L0-HDV-"/>
    <trip id="L0-HDV-12" depart="336.00" from="left-long-approaching" to="bottom-exit" type="L0-HDV-"/>
    <trip id="L0-HDV-13" depart="354.00" from="top-approaching" to="left-exit" type="L0-HDV-"/>
    <trip id="L0-HDV-14" depart="372.00" from="right-approaching" to="top-exit" type="L0-HDV-"/>
    <trip id="L0-HDV-15" depart="390.00" from="right-approaching" to="top-exit" type="L0-HDV-"/>
    <trip id="L0-HDV-16" depart="408.00" from="left-long-approaching" to="top-exit" type="L0-HDV-"/>
    <trip id="L0-HDV-17" depart="426.00" from="left-long-approaching" to="top-exit" type="L0-HDV-"/>
    <trip id="L0-HDV-18" depart="444.00" from="top-approaching" to="bottom-exit" type="L0-HDV-"/>
    <trip id="L0-HDV-19" depart="462.00" from="bottom-approaching" to="bottom-exit" type="L0-HDV-"/>
    <trip id="L0-HDV-20" depart="480.00" from="top-approaching" to="left-exit" type="L0-HDV-"/>
    <trip id="L0-HDV-21" depart="498.00" from="right-approaching" to="left-exit" type="L0-HDV-"/>
    <trip id="L0-HDV-22" depart="516.00" from="right-approaching" to="left-exit" type="L0-HDV-"/>
    <trip id="L0-HDV-23" depart="534.00" from="left-long-approaching" to="right-exit" type="L0-HDV-"/>
    <trip id="L0-HDV-24" depart="552.00" from="right-approaching" to="top-exit" type="L0-HDV-"/>
    <trip id="L0-HDV-25" depart="570.00" from="right-approaching" to="top-exit" type="L0-HDV-"/>
    <trip id="L0-HDV-26" depart="588.00" from="top-approaching" to="top-exit" type="L0-HDV-"/>
    <trip id="L0-HDV-27" depart="606.00" from="right-approaching" to="bottom-exit" type="L0-HDV-"/>
    <trip id="L0-HDV-28" depart="624.00" from="top-approaching" to="top-exit" type="L0-HDV-"/>
    <trip id="L0-HDV-29" depart="642.00" from="top-approaching" to="right-exit" type="L0-HDV-"/>
    <trip id="L0-HDV-30" depart="660.00" from="right-approaching" to="bottom-exit" type="L0-HDV-"/>
    <trip id="L0-HDV-31" depart="678.00" from="top-approaching" to="right-exit" type="L0-HDV-"/>
    <trip id="L0-HDV-32" depart="696.00" from="left-long-approaching" to="bottom-exit" type="L0-HDV-"/>
    <trip id="L0-HDV-33" depart="714.00" from="top-approaching" to="top-exit" type="L0-HDV-"/>
    <trip id="L0-HDV-34" depart="732.00" from="bottom-approaching" to="top-exit" type="L0-HDV-"/>
    <trip id="L0-HDV-35" depart="750.00" from="left-long-approaching" to="bottom-exit" type="L0-HDV-"/>
    <trip id="L0-HDV-36" depart="768.00" from="left-long-approaching" to="top-exit" type="L0-HDV-"/>
    <trip id="L0-HDV-37" depart="786.00" from="top-approaching" to="bottom-exit" type="L0-HDV-"/>
    <trip id="L0-HDV-38" depart="804.00" from="right-approaching" to="bottom-exit" type="L0-HDV-"/>
    <trip id="L0-HDV-39" depart="822.00" from="right-approaching" to="left-exit" type="L0-HDV-"/>
    <trip id="L0-HDV-40" depart="840.00" from="top-approaching" to="top-exit" type="L0-HDV-"/>
    <trip id="L0-HDV-41" depart="858.00" from="left-short-approaching" to="top-exit" type="L0-HDV-"/>
    <trip id="L0-HDV-42" depart="876.00" from="left-long-approaching" to="bottom-exit" type="L0-HDV-"/>
    <trip id="L0-HDV-43" depart="894.00" from="right-approaching" to="bottom-exit" type="L0-HDV-"/>
    <trip id="L0-HDV-44" depart="912.00" from="bottom-approaching" to="left-exit" type="L0-HDV-"/>
    <trip id="L0-HDV-45" depart="930.00" from="right-approaching" to="bottom-exit" type="L0-HDV-"/>
    <trip id="L0-HDV-46" depart="948.00" from="bottom-approaching" to="top-exit" type="L0-HDV-"/>
    <trip id="L0-HDV-47" depart="966.00" from="left-long-approaching" to="top-exit" type="L0-HDV-"/>
    <trip id="L0-HDV-48" depart="984.00" from="top-approaching" to="left-exit" type="L0-HDV-"/>
    <trip id="L0-HDV-49" depart="1002.00" from="left-long-approaching" to="right-exit" type="L0-HDV-"/>
    <trip id="L0-HDV-50" depart="1020.00" from="right-approaching" to="right-exit" type="L0-HDV-"/>
    <trip id="L0-HDV-51" depart="1038.00" from="right-approaching" to="right-exit" type="L0-HDV-"/>
    <trip id="L0-HDV-52" depart="1056.00" from="top-approaching" to="right-exit" type="L0-HDV-"/>
    <trip id="L0-HDV-53" depart="1074.00" from="left-long-approaching" to="right-exit" type="L0-HDV-"/>
    <trip id="L0-HDV-54" depart="1092.00" from="bottom-approaching" to="left-exit" type="L0-HDV-"/>
    <trip id="L0-HDV-55" depart="1110.00" from="top-approaching" to="right-exit" type="L0-HDV-"/>
    <trip id="L0-HDV-56" depart="1128.00" from="right-approaching" to="bottom-exit" type="L0-HDV-"/>
    <trip id="L0-HDV-57" depart="1146.00" from="left-long-approaching" to="right-exit" type="L0-HDV-"/>
    <trip id="L0-HDV-58" depart="1164.00" from="bottom-approaching" to="right-exit" type="L0-HDV-"/>
    <trip id="L0-HDV-59" depart="1182.00" from="right-approaching" to="bottom-exit" type="L0-HDV-"/>
    <trip id="L0-HDV-60" depart="1200.00" from="right-approaching" to="left-exit" type="L0-HDV-"/>
    <trip id="L0-HDV-61" depart="1218.00" from="right-approaching" to="left-exit" type="L0-HDV-"/>
    <trip id="L0-HDV-62" depart="1236.00" from="right-approaching" to="right-exit" type="L0-HDV-"/>
    <trip id="L0-HDV-63" depart="1254.00" from="bottom-approaching" to="bottom-exit" type="L0-HDV-"/>
    <trip id="L0-HDV-64" depart="1272.00" from="right-approaching" to="top-exit" type="L0-HDV-"/>
    <trip id="L0-HDV-65" depart="1290.00" from="left-exit-blockage" to="left-exit" type="L0-HDV-"/>
    <trip id="L0-HDV-66" depart="1308.00" from="right-approaching" to="left-exit" type="L0-HDV-"/>
    <trip id="L0-HDV-67" depart="1326.00" from="left-long-approaching" to="left-exit" type="L0-HDV-"/>
    <trip id="L0-HDV-68" depart="1344.00" from="left-long-approaching" to="right-exit" type="L0-HDV-"/>
    <trip id="L0-HDV-69" depart="1362.00" from="left-long-approaching" to="left-exit" type="L0-HDV-"/>
    <trip id="L0-HDV-70" depart="1380.00" from="top-approaching" to="bottom-exit" type="L0-HDV-"/>
    <trip id="L0-HDV-71" depart="1398.00" from="right-approaching" to="right-exit" type="L0-HDV-"/>
    <trip id="L0-HDV-72" depart="1416.00" from="left-long-approaching" to="bottom-exit" type="L0-HDV-"/>
    <trip id="L0-HDV-73" depart="1434.00" from="top-approaching" to="bottom-exit" type="L0-HDV-"/>
    <trip id="L0-HDV-74" depart="1452.00" from="bottom-approaching" to="left-exit" type="L0-HDV-"/>
    <trip id="L0-HDV-75" depart="1470.00" from="right-approaching" to="bottom-exit" type="L0-HDV-"/>
    <trip id="L0-HDV-76" depart="1488.00" from="left-long-approaching" to="left-exit" type="L0-HDV-"/>
    <trip id="L0-HDV-77" depart="1506.00" from="top-approaching" to="left-exit" type="L0-HDV-"/>
    <trip id="L0-HDV-78" depart="1524.00" from="top-approaching" to="bottom-exit" type="L0-HDV-"/>
    <trip id="L0-HDV-79" depart="1542.00" from="left-long-approaching" to="right-exit" type="L0-HDV-"/>
    <trip id="L0-HDV-80" depart="1560.00" from="top-approaching" to="left-exit" type="L0-HDV-"/>
    <trip id="L0-HDV-81" depart="1578.00" from="bottom-approaching" to="bottom-exit" type="L0-HDV-"/>
    <trip id="L0-HDV-82" depart="1596.00" from="right-approaching" to="bottom-exit" type="L0-HDV-"/>
    <trip id="L0-HDV-83" depart="1614.00" from="top-approaching" to="top-exit" type="L0-HDV-"/>
    <trip id="L0-HDV-84" depart="1632.00" from="bottom-approaching" to="left-exit" type="L0-HDV-"/>
    <trip id="L0-HDV-85" depart="1650.00" from="top-approaching" to="right-exit" type="L0-HDV-"/>
    <trip id="L0-HDV-86" depart="1668.00" from="top-approaching" to="left-exit" type="L0-HDV-"/>
    <trip id="L0-HDV-87" depart="1686.00" from="bottom-approaching" to="left-exit" type="L0-HDV-"/>
    <trip id="L0-HDV-88" depart="1704.00" from="top-approaching" to="left-exit" type="L0-HDV-"/>
    <trip id="L0-HDV-89" depart="1722.00" from="left-long-approaching" to="left-exit" type="L0-HDV-"/>
    <trip id="L0-HDV-90" depart="1740.00" from="left-long-approaching" to="left-exit" type="L0-HDV-"/>
    <trip id="L0-HDV-91" depart="1758.00" from="top-approaching" to="bottom-exit" type="L0-HDV-"/>
    <trip id="L0-HDV-92" depart="1776.00" from="bottom-approaching" to="top-exit" type="L0-HDV-"/>
    <trip id="L0-HDV-93" depart="1794.00" from="top-approaching" to="top-exit" type="L0-HDV-"/>
    <trip id="L0-HDV-94" depart="1812.00" from="left-long-approaching" to="top-exit" type="L0-HDV-"/>
    <trip id="L0-HDV-95" depart="1830.00" from="top-approaching" to="bottom-exit" type="L0-HDV-"/>
    <trip id="L0-HDV-96" depart="1848.00" from="right-approaching" to="top-exit" type="L0-HDV-"/>
    <trip id="L0-HDV-97" depart="1866.00" from="right-approaching" to="right-exit" type="L0-HDV-"/>
    <trip id="L0-HDV-98" depart="1884.00" from="left-long-approaching" to="left-exit" type="L0-HDV-"/>
    <trip id="L0-HDV-99" depart="1902.00" from="bottom-approaching" to="bottom-exit" type="L0-HDV-"/>
    <trip id="L0-HDV-100" depart="1920.00" from="right-approaching" to="left-exit" type="L0-HDV-"/>
    <trip id="L0-HDV-101" depart="1938.00" from="top-approaching" to="bottom-exit" type="L0-HDV-"/>
    <trip id="L0-HDV-102" depart="1956.00" from="top-approaching" to="right-exit" type="L0-HDV-"/>
    <trip id="L0-HDV-103" depart="1974.00" from="top-approaching" to="top-exit" type="L0-HDV-"/>
    <trip id="L0-HDV-104" depart="1992.00" from="top-approaching" to="right-exit" type="L0-HDV-"/>
    <trip id="L0-HDV-105" depart="2010.00" from="bottom-approaching" to="right-exit" type="L0-HDV-"/>
    <trip id="L0-HDV-106" depart="2028.00" from="bottom-approaching" to="left-exit" type="L0-HDV-"/>
    <trip id="L0-HDV-107" depart="2046.00" from="right-approaching" to="right-exit" type="L0-HDV-"/>
    <trip id="L0-HDV-108" depart="2064.00" from="left-long-approaching" to="top-exit" type="L0-HDV-"/>
    <trip id="L0-HDV-109" depart="2082.00" from="right-approaching" to="left-exit" type="L0-HDV-"/>
    <trip id="L0-HDV-110" depart="2100.00" from="left-exit-blockage" to="top-exit" type="L0-HDV-"/>
    <trip id="L0-HDV-111" depart="2118.00" from="left-long-approaching" to="top-exit" type="L0-HDV-"/>
    <trip id="L0-HDV-112" depart="2136.00" from="left-long-approaching" to="bottom-exit" type="L0-HDV-"/>
    <trip id="L0-HDV-113" depart="2154.00" from="right-approaching" to="top-exit" type="L0-HDV-"/>
    <trip id="L0-HDV-114" depart="2172.00" from="bottom-approaching" to="top-exit" type="L0-HDV-"/>
    <trip id="L0-HDV-115" depart="2190.00" from="top-approaching" to="top-exit" type="L0-HDV-"/>
    <trip id="L0-HDV-116" depart="2208.00" from="top-approaching" to="bottom-exit" type="L0-HDV-"/>
    <trip id="L0-HDV-117" depart="2226.00" from="right-approaching" to="top-exit" type="L0-HDV-"/>
    <trip id="L0-HDV-118" depart="2244.00" from="bottom-approaching" to="left-exit" type="L0-HDV-"/>
    <trip id="L0-HDV-119" depart="2262.00" from="left-long-approaching" to="right-exit" type="L0-HDV-"/>
    <trip id="L0-HDV-120" depart="2280.00" from="left-long-approaching" to="left-exit" type="L0-HDV-"/>
    <trip id="L0-HDV-121" depart="2298.00" from="top-approaching" to="bottom-exit" type="L0-HDV-"/>
    <trip id="L0-HDV-122" depart="2316.00" from="bottom-approaching" to="bottom-exit" type="L0-HDV-"/>
    <trip id="L0-HDV-123" depart="2334.00" from="bottom-approaching" to="bottom-exit" type="L0-HDV-"/>
    <trip id="L0-HDV-124" depart="2352.00" from="top-approaching" to="top-exit" type="L0-HDV-"/>
    <trip id="L0-HDV-125" depart="2370.00" from="bottom-approaching" to="left-short-approaching" type="L0-HDV-"/>
    <trip id="L0-HDV-126" depart="2388.00" from="left-long-approaching" to="left-exit" type="L0-HDV-"/>
    <trip id="L0-HDV-127" depart="2406.00" from="left-long-approaching" to="right-exit" type="L0-HDV-"/>
    <trip id="L0-HDV-128" depart="2424.00" from="right-approaching" to="left-exit" type="L0-HDV-"/>
    <trip id="L0-HDV-129" depart="2442.00" from="bottom-approaching" to="left-exit" type="L0-HDV-"/>
    <trip id="L0-HDV-130" depart="2460.00" from="bottom-approaching" to="right-exit" type="L0-HDV-"/>
    <trip id="L0-HDV-131" depart="2478.00" from="right-approaching" to="left-exit" type="L0-HDV-"/>
    <trip id="L0-HDV-132" depart="2496.00" from="bottom-approaching" to="bottom-exit" type="L0-HDV-"/>
    <trip id="L0-HDV-133" depart="2514.00" from="left-long-approaching" to="right-exit" type="L0-HDV-"/>
    <trip id="L0-HDV-134" depart="2532.00" from="top-approaching" to="left-exit" type="L0-HDV-"/>
    <trip id="L0-HDV-135" depart="2550.00" from="top-approaching" to="right-exit" type="L0-HDV-"/>
    <trip id="L0-HDV-136" depart="2568.00" from="left-long-approaching" to="left-exit" type="L0-HDV-"/>
    <trip id="L0-HDV-137" depart="2586.00" from="left-long-approaching" to="right-exit" type="L0-HDV-"/>
    <trip id="L0-HDV-138" depart="2604.00" from="left-long-approaching" to="right-exit" type="L0-HDV-"/>
    <trip id="L0-HDV-139" depart="2622.00" from="left-long-approaching" to="bottom-exit" type="L0-HDV-"/>
    <trip id="L0-HDV-140" depart="2640.00" from="right-approaching" to="right-exit" type="L0-HDV-"/>
    <trip id="L0-HDV-141" depart="2658.00" from="bottom-approaching" to="left-exit" type="L0-HDV-"/>
    <trip id="L0-HDV-142" depart="2676.00" from="left-long-approaching" to="top-exit" type="L0-HDV-"/>
    <trip id="L0-HDV-143" depart="2694.00" from="top-approaching" to="left-exit" type="L0-HDV-"/>
    <trip id="L0-HDV-144" depart="2712.00" from="top-approaching" to="top-exit" type="L0-HDV-"/>
    <trip id="L0-HDV-145" depart="2730.00" from="left-long-approaching" to="left-exit" type="L0-HDV-"/>
    <trip id="L0-HDV-146" depart="2748.00" from="bottom-approaching" to="top-exit" type="L0-HDV-"/>
    <trip id="L0-HDV-147" depart="2766.00" from="right-approaching" to="top-exit" type="L0-HDV-"/>
    <trip id="L0-HDV-148" depart="2784.00" from="top-approaching" to="right-exit" type="L0-HDV-"/>
    <trip id="L0-HDV-149" depart="2802.00" from="right-approaching" to="right-exit" type="L0-HDV-"/>
    <trip id="L0-HDV-150" depart="2820.00" from="bottom-approaching" to="right-exit" type="L0-HDV-"/>
    <trip id="L0-HDV-151" depart="2838.00" from="bottom-approaching" to="bottom-exit" type="L0-HDV-"/>
    <trip id="L0-HDV-152" depart="2856.00" from="top-approaching" to="bottom-exit" type="L0-HDV-"/>
    <trip id="L0-HDV-153" depart="2874.00" from="bottom-approaching" to="bottom-exit" type="L0-HDV-"/>
    <trip id="L0-HDV-154" depart="2892.00" from="top-approaching" to="bottom-exit" type="L0-HDV-"/>
    <trip id="L0-HDV-155" depart="2910.00" from="bottom-approaching" to="top-exit" type="L0-HDV-"/>
    <trip id="L0-HDV-156" depart="2928.00" from="bottom-approaching" to="top-exit" type="L0-HDV-"/>
    <trip id="L0-HDV-157" depart="2946.00" from="right-approaching" to="top-exit" type="L0-HDV-"/>
    <trip id="L0-HDV-158" depart="2964.00" from="top-approaching" to="right-exit" type="L0-HDV-"/>
    <trip id="L0-HDV-159" depart="2982.00" from="top-approaching" to="bottom-exit" type="L0-HDV-"/>
    <trip id="L0-HDV-160" depart="3000.00" from="top-approaching" to="right-exit" type="L0-HDV-"/>
    <trip id="L0-HDV-161" depart="3018.00" from="right-approaching" to="bottom-exit" type="L0-HDV-"/>
    <trip id="L0-HDV-162" depart="3036.00" from="right-approaching" to="top-exit" type="L0-HDV-"/>
    <trip id="L0-HDV-163" depart="3054.00" from="bottom-approaching" to="left-exit" type="L0-HDV-"/>
    <trip id="L0-HDV-164" depart="3072.00" from="right-approaching" to="top-exit" type="L0-HDV-"/>
    <trip id="L0-HDV-165" depart="3090.00" from="bottom-approaching" to="bottom-exit" type="L0-HDV-"/>
    <trip id="L0-HDV-166" depart="3108.00" from="left-exit-blockage" to="right-exit" type="L0-HDV-"/>
    <trip id="L0-HDV-167" depart="3126.00" from="top-approaching" to="left-exit" type="L0-HDV-"/>
    <trip id="L0-HDV-168" depart="3144.00" from="left-long-approaching" to="left-exit" type="L0-HDV-"/>
    <trip id="L0-HDV-169" depart="3162.00" from="left-long-approaching" to="left-exit" type="L0-HDV-"/>
    <trip id="L0-HDV-170" depart="3180.00" from="bottom-approaching" to="left-short-approaching" type="L0-HDV-"/>
    <trip id="L0-HDV-171" depart="3198.00" from="top-approaching" to="left-exit" type="L0-HDV-"/>
    <trip id="L0-HDV-172" depart="3216.00" from="right-approaching" to="bottom-exit" type="L0-HDV-"/>
    <trip id="L0-HDV-173" depart="3234.00" from="right-approaching" to="top-exit" type="L0-HDV-"/>
    <trip id="L0-HDV-174" depart="3252.00" from="right-approaching" to="right-exit" type="L0-HDV-"/>
    <trip id="L0-HDV-175" depart="3270.00" from="left-long-approaching" to="right-exit" type="L0-HDV-"/>
    <trip id="L0-HDV-176" depart="3288.00" from="top-approaching" to="bottom-exit" type="L0-HDV-"/>
    <trip id="L0-HDV-177" depart="3306.00" from="bottom-approaching" to="right-exit" type="L0-HDV-"/>
    <trip id="L0-HDV-178" depart="3324.00" from="top-approaching" to="right-exit" type="L0-HDV-"/>
    <trip id="L0-HDV-179" depart="3342.00" from="left-long-approaching" to="right-exit" type="L0-HDV-"/>
    <trip id="L0-HDV-180" depart="3360.00" from="bottom-approaching" to="left-exit" type="L0-HDV-"/>
    <trip id="L0-HDV-181" depart="3378.00" from="bottom-approaching" to="right-exit" type="L0-HDV-"/>
    <trip id="L0-HDV-182" depart="3396.00" from="left-long-approaching" to="bottom-exit" type="L0-HDV-"/>
    <trip id="L0-HDV-183" depart="3414.00" from="right-approaching" to="top-exit" type="L0-HDV-"/>
    <trip id="L0-HDV-184" depart="3432.00" from="left-long-approaching" to="right-exit" type="L0-HDV-"/>
    <trip id="L0-HDV-185" depart="3450.00" from="left-long-approaching" to="top-exit" type="L0-HDV-"/>
    <trip id="L0-HDV-186" depart="3468.00" from="right-approaching" to="left-exit" type="L0-HDV-"/>
    <trip id="L0-HDV-187" depart="3486.00" from="bottom-approaching" to="bottom-exit" type="L0-HDV-"/>
    <trip id="L0-HDV-188" depart="3504.00" from="left-long-approaching" to="left-exit" type="L0-HDV-"/>
    <trip id="L0-HDV-189" depart="3522.00" from="bottom-approaching" to="left-exit" type="L0-HDV-"/>
    <trip id="L0-HDV-190" depart="3540.00" from="left-long-approaching" to="top-exit" type="L0-HDV-"/>
    <trip id="L0-HDV-191" depart="3558.00" from="bottom-approaching" to="top-exit" type="L0-HDV-"/>
    <trip id="L0-HDV-192" depart="3576.00" from="left-long-approaching" to="right-exit" type="L0-HDV-"/>
    <trip id="L0-HDV-193" depart="3594.00" from="left-long-approaching" to="top-exit" type="L0-HDV-"/>
</routes>
