<?xml version="1.0" encoding="UTF-8"?>
<!-- generated on 2021-03-23 21:41:08.724571 by $Id$ v1_8_0+0044-4820708f3d
  options: -n Collision/CollisionIntersection.net.xml <doubleminus>fringe-factor 40 -r Collision/RealTMSPenetration3/Route-Files/L0-HDV-Route.rou.xml <doubleminus>trip-attributes=type="L0-HDV-" -b 120 -l <doubleminus>prefix L0-HDV- <doubleminus>seed 3 -p 12
-->
<routes xmlns:xsi="http://www.w3.org/2001/XMLSchema-instance" xsi:noNamespaceSchemaLocation="http://sumo.dlr.de/xsd/routes_file.xsd">
    <trip id="L0-HDV-0" depart="120.00" from="bottom-approaching" to="right-exit" type="L0-HDV-"/>
    <trip id="L0-HDV-1" depart="132.00" from="left-long-approaching" to="right-exit" type="L0-HDV-"/>
    <trip id="L0-HDV-2" depart="144.00" from="right-approaching" to="bottom-exit" type="L0-HDV-"/>
    <trip id="L0-HDV-3" depart="156.00" from="bottom-approaching" to="top-exit" type="L0-HDV-"/>
    <trip id="L0-HDV-4" depart="168.00" from="left-long-approaching" to="bottom-exit" type="L0-HDV-"/>
    <trip id="L0-HDV-5" depart="180.00" from="top-approaching" to="left-exit" type="L0-HDV-"/>
    <trip id="L0-HDV-6" depart="192.00" from="top-approaching" to="left-exit" type="L0-HDV-"/>
    <trip id="L0-HDV-7" depart="204.00" from="right-approaching" to="bottom-exit" type="L0-HDV-"/>
    <trip id="L0-HDV-8" depart="216.00" from="right-approaching" to="top-exit" type="L0-HDV-"/>
    <trip id="L0-HDV-9" depart="228.00" from="right-approaching" to="right-exit" type="L0-HDV-"/>
    <trip id="L0-HDV-10" depart="240.00" from="right-approaching" to="bottom-exit" type="L0-HDV-"/>
    <trip id="L0-HDV-11" depart="252.00" from="top-approaching" to="right-exit" type="L0-HDV-"/>
    <trip id="L0-HDV-12" depart="264.00" from="left-long-approaching" to="bottom-exit" type="L0-HDV-"/>
    <trip id="L0-HDV-13" depart="276.00" from="top-approaching" to="left-exit" type="L0-HDV-"/>
    <trip id="L0-HDV-14" depart="288.00" from="right-approaching" to="top-exit" type="L0-HDV-"/>
    <trip id="L0-HDV-15" depart="300.00" from="right-approaching" to="top-exit" type="L0-HDV-"/>
    <trip id="L0-HDV-16" depart="312.00" from="left-long-approaching" to="top-exit" type="L0-HDV-"/>
    <trip id="L0-HDV-17" depart="324.00" from="left-long-approaching" to="top-exit" type="L0-HDV-"/>
    <trip id="L0-HDV-18" depart="336.00" from="top-approaching" to="bottom-exit" type="L0-HDV-"/>
    <trip id="L0-HDV-19" depart="348.00" from="bottom-approaching" to="bottom-exit" type="L0-HDV-"/>
    <trip id="L0-HDV-20" depart="360.00" from="top-approaching" to="left-exit" type="L0-HDV-"/>
    <trip id="L0-HDV-21" depart="372.00" from="right-approaching" to="left-exit" type="L0-HDV-"/>
    <trip id="L0-HDV-22" depart="384.00" from="right-approaching" to="left-exit" type="L0-HDV-"/>
    <trip id="L0-HDV-23" depart="396.00" from="left-long-approaching" to="right-exit" type="L0-HDV-"/>
    <trip id="L0-HDV-24" depart="408.00" from="right-approaching" to="top-exit" type="L0-HDV-"/>
    <trip id="L0-HDV-25" depart="420.00" from="right-approaching" to="top-exit" type="L0-HDV-"/>
    <trip id="L0-HDV-26" depart="432.00" from="top-approaching" to="top-exit" type="L0-HDV-"/>
    <trip id="L0-HDV-27" depart="444.00" from="right-approaching" to="bottom-exit" type="L0-HDV-"/>
    <trip id="L0-HDV-28" depart="456.00" from="top-approaching" to="top-exit" type="L0-HDV-"/>
    <trip id="L0-HDV-29" depart="468.00" from="top-approaching" to="right-exit" type="L0-HDV-"/>
    <trip id="L0-HDV-30" depart="480.00" from="right-approaching" to="bottom-exit" type="L0-HDV-"/>
    <trip id="L0-HDV-31" depart="492.00" from="top-approaching" to="right-exit" type="L0-HDV-"/>
    <trip id="L0-HDV-32" depart="504.00" from="left-long-approaching" to="bottom-exit" type="L0-HDV-"/>
    <trip id="L0-HDV-33" depart="516.00" from="top-approaching" to="top-exit" type="L0-HDV-"/>
    <trip id="L0-HDV-34" depart="528.00" from="bottom-approaching" to="top-exit" type="L0-HDV-"/>
    <trip id="L0-HDV-35" depart="540.00" from="left-long-approaching" to="bottom-exit" type="L0-HDV-"/>
    <trip id="L0-HDV-36" depart="552.00" from="left-long-approaching" to="top-exit" type="L0-HDV-"/>
    <trip id="L0-HDV-37" depart="564.00" from="top-approaching" to="bottom-exit" type="L0-HDV-"/>
    <trip id="L0-HDV-38" depart="576.00" from="right-approaching" to="bottom-exit" type="L0-HDV-"/>
    <trip id="L0-HDV-39" depart="588.00" from="right-approaching" to="left-exit" type="L0-HDV-"/>
    <trip id="L0-HDV-40" depart="600.00" from="top-approaching" to="top-exit" type="L0-HDV-"/>
    <trip id="L0-HDV-41" depart="612.00" from="left-short-approaching" to="top-exit" type="L0-HDV-"/>
    <trip id="L0-HDV-42" depart="624.00" from="left-long-approaching" to="bottom-exit" type="L0-HDV-"/>
    <trip id="L0-HDV-43" depart="636.00" from="right-approaching" to="bottom-exit" type="L0-HDV-"/>
    <trip id="L0-HDV-44" depart="648.00" from="bottom-approaching" to="left-exit" type="L0-HDV-"/>
    <trip id="L0-HDV-45" depart="660.00" from="right-approaching" to="bottom-exit" type="L0-HDV-"/>
    <trip id="L0-HDV-46" depart="672.00" from="bottom-approaching" to="top-exit" type="L0-HDV-"/>
    <trip id="L0-HDV-47" depart="684.00" from="left-long-approaching" to="top-exit" type="L0-HDV-"/>
    <trip id="L0-HDV-48" depart="696.00" from="top-approaching" to="left-exit" type="L0-HDV-"/>
    <trip id="L0-HDV-49" depart="708.00" from="left-long-approaching" to="right-exit" type="L0-HDV-"/>
    <trip id="L0-HDV-50" depart="720.00" from="right-approaching" to="right-exit" type="L0-HDV-"/>
    <trip id="L0-HDV-51" depart="732.00" from="right-approaching" to="right-exit" type="L0-HDV-"/>
    <trip id="L0-HDV-52" depart="744.00" from="top-approaching" to="right-exit" type="L0-HDV-"/>
    <trip id="L0-HDV-53" depart="756.00" from="left-long-approaching" to="right-exit" type="L0-HDV-"/>
    <trip id="L0-HDV-54" depart="768.00" from="bottom-approaching" to="left-exit" type="L0-HDV-"/>
    <trip id="L0-HDV-55" depart="780.00" from="top-approaching" to="right-exit" type="L0-HDV-"/>
    <trip id="L0-HDV-56" depart="792.00" from="right-approaching" to="bottom-exit" type="L0-HDV-"/>
    <trip id="L0-HDV-57" depart="804.00" from="left-long-approaching" to="right-exit" type="L0-HDV-"/>
    <trip id="L0-HDV-58" depart="816.00" from="bottom-approaching" to="right-exit" type="L0-HDV-"/>
    <trip id="L0-HDV-59" depart="828.00" from="right-approaching" to="bottom-exit" type="L0-HDV-"/>
    <trip id="L0-HDV-60" depart="840.00" from="right-approaching" to="left-exit" type="L0-HDV-"/>
    <trip id="L0-HDV-61" depart="852.00" from="right-approaching" to="left-exit" type="L0-HDV-"/>
    <trip id="L0-HDV-62" depart="864.00" from="right-approaching" to="right-exit" type="L0-HDV-"/>
    <trip id="L0-HDV-63" depart="876.00" from="bottom-approaching" to="bottom-exit" type="L0-HDV-"/>
    <trip id="L0-HDV-64" depart="888.00" from="right-approaching" to="top-exit" type="L0-HDV-"/>
    <trip id="L0-HDV-65" depart="900.00" from="left-exit-blockage" to="left-exit" type="L0-HDV-"/>
    <trip id="L0-HDV-66" depart="912.00" from="right-approaching" to="left-exit" type="L0-HDV-"/>
    <trip id="L0-HDV-67" depart="924.00" from="left-long-approaching" to="left-exit" type="L0-HDV-"/>
    <trip id="L0-HDV-68" depart="936.00" from="left-long-approaching" to="right-exit" type="L0-HDV-"/>
    <trip id="L0-HDV-69" depart="948.00" from="left-long-approaching" to="left-exit" type="L0-HDV-"/>
    <trip id="L0-HDV-70" depart="960.00" from="top-approaching" to="bottom-exit" type="L0-HDV-"/>
    <trip id="L0-HDV-71" depart="972.00" from="right-approaching" to="right-exit" type="L0-HDV-"/>
    <trip id="L0-HDV-72" depart="984.00" from="left-long-approaching" to="bottom-exit" type="L0-HDV-"/>
    <trip id="L0-HDV-73" depart="996.00" from="top-approaching" to="bottom-exit" type="L0-HDV-"/>
    <trip id="L0-HDV-74" depart="1008.00" from="bottom-approaching" to="left-exit" type="L0-HDV-"/>
    <trip id="L0-HDV-75" depart="1020.00" from="right-approaching" to="bottom-exit" type="L0-HDV-"/>
    <trip id="L0-HDV-76" depart="1032.00" from="left-long-approaching" to="left-exit" type="L0-HDV-"/>
    <trip id="L0-HDV-77" depart="1044.00" from="top-approaching" to="left-exit" type="L0-HDV-"/>
    <trip id="L0-HDV-78" depart="1056.00" from="top-approaching" to="bottom-exit" type="L0-HDV-"/>
    <trip id="L0-HDV-79" depart="1068.00" from="left-long-approaching" to="right-exit" type="L0-HDV-"/>
    <trip id="L0-HDV-80" depart="1080.00" from="top-approaching" to="left-exit" type="L0-HDV-"/>
    <trip id="L0-HDV-81" depart="1092.00" from="bottom-approaching" to="bottom-exit" type="L0-HDV-"/>
    <trip id="L0-HDV-82" depart="1104.00" from="right-approaching" to="bottom-exit" type="L0-HDV-"/>
    <trip id="L0-HDV-83" depart="1116.00" from="top-approaching" to="top-exit" type="L0-HDV-"/>
    <trip id="L0-HDV-84" depart="1128.00" from="bottom-approaching" to="left-exit" type="L0-HDV-"/>
    <trip id="L0-HDV-85" depart="1140.00" from="top-approaching" to="right-exit" type="L0-HDV-"/>
    <trip id="L0-HDV-86" depart="1152.00" from="top-approaching" to="left-exit" type="L0-HDV-"/>
    <trip id="L0-HDV-87" depart="1164.00" from="bottom-approaching" to="left-exit" type="L0-HDV-"/>
    <trip id="L0-HDV-88" depart="1176.00" from="top-approaching" to="left-exit" type="L0-HDV-"/>
    <trip id="L0-HDV-89" depart="1188.00" from="left-long-approaching" to="left-exit" type="L0-HDV-"/>
    <trip id="L0-HDV-90" depart="1200.00" from="left-long-approaching" to="left-exit" type="L0-HDV-"/>
    <trip id="L0-HDV-91" depart="1212.00" from="top-approaching" to="bottom-exit" type="L0-HDV-"/>
    <trip id="L0-HDV-92" depart="1224.00" from="bottom-approaching" to="top-exit" type="L0-HDV-"/>
    <trip id="L0-HDV-93" depart="1236.00" from="top-approaching" to="top-exit" type="L0-HDV-"/>
    <trip id="L0-HDV-94" depart="1248.00" from="left-long-approaching" to="top-exit" type="L0-HDV-"/>
    <trip id="L0-HDV-95" depart="1260.00" from="top-approaching" to="bottom-exit" type="L0-HDV-"/>
    <trip id="L0-HDV-96" depart="1272.00" from="right-approaching" to="top-exit" type="L0-HDV-"/>
    <trip id="L0-HDV-97" depart="1284.00" from="right-approaching" to="right-exit" type="L0-HDV-"/>
    <trip id="L0-HDV-98" depart="1296.00" from="left-long-approaching" to="left-exit" type="L0-HDV-"/>
    <trip id="L0-HDV-99" depart="1308.00" from="bottom-approaching" to="bottom-exit" type="L0-HDV-"/>
    <trip id="L0-HDV-100" depart="1320.00" from="right-approaching" to="left-exit" type="L0-HDV-"/>
    <trip id="L0-HDV-101" depart="1332.00" from="top-approaching" to="bottom-exit" type="L0-HDV-"/>
    <trip id="L0-HDV-102" depart="1344.00" from="top-approaching" to="right-exit" type="L0-HDV-"/>
    <trip id="L0-HDV-103" depart="1356.00" from="top-approaching" to="top-exit" type="L0-HDV-"/>
    <trip id="L0-HDV-104" depart="1368.00" from="top-approaching" to="right-exit" type="L0-HDV-"/>
    <trip id="L0-HDV-105" depart="1380.00" from="bottom-approaching" to="right-exit" type="L0-HDV-"/>
    <trip id="L0-HDV-106" depart="1392.00" from="bottom-approaching" to="left-exit" type="L0-HDV-"/>
    <trip id="L0-HDV-107" depart="1404.00" from="right-approaching" to="right-exit" type="L0-HDV-"/>
    <trip id="L0-HDV-108" depart="1416.00" from="left-long-approaching" to="top-exit" type="L0-HDV-"/>
    <trip id="L0-HDV-109" depart="1428.00" from="right-approaching" to="left-exit" type="L0-HDV-"/>
    <trip id="L0-HDV-110" depart="1440.00" from="left-exit-blockage" to="top-exit" type="L0-HDV-"/>
    <trip id="L0-HDV-111" depart="1452.00" from="left-long-approaching" to="top-exit" type="L0-HDV-"/>
    <trip id="L0-HDV-112" depart="1464.00" from="left-long-approaching" to="bottom-exit" type="L0-HDV-"/>
    <trip id="L0-HDV-113" depart="1476.00" from="right-approaching" to="top-exit" type="L0-HDV-"/>
    <trip id="L0-HDV-114" depart="1488.00" from="bottom-approaching" to="top-exit" type="L0-HDV-"/>
    <trip id="L0-HDV-115" depart="1500.00" from="top-approaching" to="top-exit" type="L0-HDV-"/>
    <trip id="L0-HDV-116" depart="1512.00" from="top-approaching" to="bottom-exit" type="L0-HDV-"/>
    <trip id="L0-HDV-117" depart="1524.00" from="right-approaching" to="top-exit" type="L0-HDV-"/>
    <trip id="L0-HDV-118" depart="1536.00" from="bottom-approaching" to="left-exit" type="L0-HDV-"/>
    <trip id="L0-HDV-119" depart="1548.00" from="left-long-approaching" to="right-exit" type="L0-HDV-"/>
    <trip id="L0-HDV-120" depart="1560.00" from="left-long-approaching" to="left-exit" type="L0-HDV-"/>
    <trip id="L0-HDV-121" depart="1572.00" from="top-approaching" to="bottom-exit" type="L0-HDV-"/>
    <trip id="L0-HDV-122" depart="1584.00" from="bottom-approaching" to="bottom-exit" type="L0-HDV-"/>
    <trip id="L0-HDV-123" depart="1596.00" from="bottom-approaching" to="bottom-exit" type="L0-HDV-"/>
    <trip id="L0-HDV-124" depart="1608.00" from="top-approaching" to="top-exit" type="L0-HDV-"/>
    <trip id="L0-HDV-125" depart="1620.00" from="bottom-approaching" to="left-short-approaching" type="L0-HDV-"/>
    <trip id="L0-HDV-126" depart="1632.00" from="left-long-approaching" to="left-exit" type="L0-HDV-"/>
    <trip id="L0-HDV-127" depart="1644.00" from="left-long-approaching" to="right-exit" type="L0-HDV-"/>
    <trip id="L0-HDV-128" depart="1656.00" from="right-approaching" to="left-exit" type="L0-HDV-"/>
    <trip id="L0-HDV-129" depart="1668.00" from="bottom-approaching" to="left-exit" type="L0-HDV-"/>
    <trip id="L0-HDV-130" depart="1680.00" from="bottom-approaching" to="right-exit" type="L0-HDV-"/>
    <trip id="L0-HDV-131" depart="1692.00" from="right-approaching" to="left-exit" type="L0-HDV-"/>
    <trip id="L0-HDV-132" depart="1704.00" from="bottom-approaching" to="bottom-exit" type="L0-HDV-"/>
    <trip id="L0-HDV-133" depart="1716.00" from="left-long-approaching" to="right-exit" type="L0-HDV-"/>
    <trip id="L0-HDV-134" depart="1728.00" from="top-approaching" to="left-exit" type="L0-HDV-"/>
    <trip id="L0-HDV-135" depart="1740.00" from="top-approaching" to="right-exit" type="L0-HDV-"/>
    <trip id="L0-HDV-136" depart="1752.00" from="left-long-approaching" to="left-exit" type="L0-HDV-"/>
    <trip id="L0-HDV-137" depart="1764.00" from="left-long-approaching" to="right-exit" type="L0-HDV-"/>
    <trip id="L0-HDV-138" depart="1776.00" from="left-long-approaching" to="right-exit" type="L0-HDV-"/>
    <trip id="L0-HDV-139" depart="1788.00" from="left-long-approaching" to="bottom-exit" type="L0-HDV-"/>
    <trip id="L0-HDV-140" depart="1800.00" from="right-approaching" to="right-exit" type="L0-HDV-"/>
    <trip id="L0-HDV-141" depart="1812.00" from="bottom-approaching" to="left-exit" type="L0-HDV-"/>
    <trip id="L0-HDV-142" depart="1824.00" from="left-long-approaching" to="top-exit" type="L0-HDV-"/>
    <trip id="L0-HDV-143" depart="1836.00" from="top-approaching" to="left-exit" type="L0-HDV-"/>
    <trip id="L0-HDV-144" depart="1848.00" from="top-approaching" to="top-exit" type="L0-HDV-"/>
    <trip id="L0-HDV-145" depart="1860.00" from="left-long-approaching" to="left-exit" type="L0-HDV-"/>
    <trip id="L0-HDV-146" depart="1872.00" from="bottom-approaching" to="top-exit" type="L0-HDV-"/>
    <trip id="L0-HDV-147" depart="1884.00" from="right-approaching" to="top-exit" type="L0-HDV-"/>
    <trip id="L0-HDV-148" depart="1896.00" from="top-approaching" to="right-exit" type="L0-HDV-"/>
    <trip id="L0-HDV-149" depart="1908.00" from="right-approaching" to="right-exit" type="L0-HDV-"/>
    <trip id="L0-HDV-150" depart="1920.00" from="bottom-approaching" to="right-exit" type="L0-HDV-"/>
    <trip id="L0-HDV-151" depart="1932.00" from="bottom-approaching" to="bottom-exit" type="L0-HDV-"/>
    <trip id="L0-HDV-152" depart="1944.00" from="top-approaching" to="bottom-exit" type="L0-HDV-"/>
    <trip id="L0-HDV-153" depart="1956.00" from="bottom-approaching" to="bottom-exit" type="L0-HDV-"/>
    <trip id="L0-HDV-154" depart="1968.00" from="top-approaching" to="bottom-exit" type="L0-HDV-"/>
    <trip id="L0-HDV-155" depart="1980.00" from="bottom-approaching" to="top-exit" type="L0-HDV-"/>
    <trip id="L0-HDV-156" depart="1992.00" from="bottom-approaching" to="top-exit" type="L0-HDV-"/>
    <trip id="L0-HDV-157" depart="2004.00" from="right-approaching" to="top-exit" type="L0-HDV-"/>
    <trip id="L0-HDV-158" depart="2016.00" from="top-approaching" to="right-exit" type="L0-HDV-"/>
    <trip id="L0-HDV-159" depart="2028.00" from="top-approaching" to="bottom-exit" type="L0-HDV-"/>
    <trip id="L0-HDV-160" depart="2040.00" from="top-approaching" to="right-exit" type="L0-HDV-"/>
    <trip id="L0-HDV-161" depart="2052.00" from="right-approaching" to="bottom-exit" type="L0-HDV-"/>
    <trip id="L0-HDV-162" depart="2064.00" from="right-approaching" to="top-exit" type="L0-HDV-"/>
    <trip id="L0-HDV-163" depart="2076.00" from="bottom-approaching" to="left-exit" type="L0-HDV-"/>
    <trip id="L0-HDV-164" depart="2088.00" from="right-approaching" to="top-exit" type="L0-HDV-"/>
    <trip id="L0-HDV-165" depart="2100.00" from="bottom-approaching" to="bottom-exit" type="L0-HDV-"/>
    <trip id="L0-HDV-166" depart="2112.00" from="left-exit-blockage" to="right-exit" type="L0-HDV-"/>
    <trip id="L0-HDV-167" depart="2124.00" from="top-approaching" to="left-exit" type="L0-HDV-"/>
    <trip id="L0-HDV-168" depart="2136.00" from="left-long-approaching" to="left-exit" type="L0-HDV-"/>
    <trip id="L0-HDV-169" depart="2148.00" from="left-long-approaching" to="left-exit" type="L0-HDV-"/>
    <trip id="L0-HDV-170" depart="2160.00" from="bottom-approaching" to="left-short-approaching" type="L0-HDV-"/>
    <trip id="L0-HDV-171" depart="2172.00" from="top-approaching" to="left-exit" type="L0-HDV-"/>
    <trip id="L0-HDV-172" depart="2184.00" from="right-approaching" to="bottom-exit" type="L0-HDV-"/>
    <trip id="L0-HDV-173" depart="2196.00" from="right-approaching" to="top-exit" type="L0-HDV-"/>
    <trip id="L0-HDV-174" depart="2208.00" from="right-approaching" to="right-exit" type="L0-HDV-"/>
    <trip id="L0-HDV-175" depart="2220.00" from="left-long-approaching" to="right-exit" type="L0-HDV-"/>
    <trip id="L0-HDV-176" depart="2232.00" from="top-approaching" to="bottom-exit" type="L0-HDV-"/>
    <trip id="L0-HDV-177" depart="2244.00" from="bottom-approaching" to="right-exit" type="L0-HDV-"/>
    <trip id="L0-HDV-178" depart="2256.00" from="top-approaching" to="right-exit" type="L0-HDV-"/>
    <trip id="L0-HDV-179" depart="2268.00" from="left-long-approaching" to="right-exit" type="L0-HDV-"/>
    <trip id="L0-HDV-180" depart="2280.00" from="bottom-approaching" to="left-exit" type="L0-HDV-"/>
    <trip id="L0-HDV-181" depart="2292.00" from="bottom-approaching" to="right-exit" type="L0-HDV-"/>
    <trip id="L0-HDV-182" depart="2304.00" from="left-long-approaching" to="bottom-exit" type="L0-HDV-"/>
    <trip id="L0-HDV-183" depart="2316.00" from="right-approaching" to="top-exit" type="L0-HDV-"/>
    <trip id="L0-HDV-184" depart="2328.00" from="left-long-approaching" to="right-exit" type="L0-HDV-"/>
    <trip id="L0-HDV-185" depart="2340.00" from="left-long-approaching" to="top-exit" type="L0-HDV-"/>
    <trip id="L0-HDV-186" depart="2352.00" from="right-approaching" to="left-exit" type="L0-HDV-"/>
    <trip id="L0-HDV-187" depart="2364.00" from="bottom-approaching" to="bottom-exit" type="L0-HDV-"/>
    <trip id="L0-HDV-188" depart="2376.00" from="left-long-approaching" to="left-exit" type="L0-HDV-"/>
    <trip id="L0-HDV-189" depart="2388.00" from="bottom-approaching" to="left-exit" type="L0-HDV-"/>
    <trip id="L0-HDV-190" depart="2400.00" from="left-long-approaching" to="top-exit" type="L0-HDV-"/>
    <trip id="L0-HDV-191" depart="2412.00" from="bottom-approaching" to="top-exit" type="L0-HDV-"/>
    <trip id="L0-HDV-192" depart="2424.00" from="left-long-approaching" to="right-exit" type="L0-HDV-"/>
    <trip id="L0-HDV-193" depart="2436.00" from="left-long-approaching" to="top-exit" type="L0-HDV-"/>
    <trip id="L0-HDV-194" depart="2448.00" from="top-approaching" to="right-exit" type="L0-HDV-"/>
    <trip id="L0-HDV-195" depart="2460.00" from="left-long-approaching" to="right-exit" type="L0-HDV-"/>
    <trip id="L0-HDV-196" depart="2472.00" from="top-approaching" to="left-exit" type="L0-HDV-"/>
    <trip id="L0-HDV-197" depart="2484.00" from="right-approaching" to="top-exit" type="L0-HDV-"/>
    <trip id="L0-HDV-198" depart="2496.00" from="left-long-approaching" to="bottom-exit" type="L0-HDV-"/>
    <trip id="L0-HDV-199" depart="2508.00" from="bottom-approaching" to="right-exit" type="L0-HDV-"/>
    <trip id="L0-HDV-200" depart="2520.00" from="right-approaching" to="top-exit" type="L0-HDV-"/>
    <trip id="L0-HDV-201" depart="2532.00" from="top-approaching" to="bottom-exit" type="L0-HDV-"/>
    <trip id="L0-HDV-202" depart="2544.00" from="bottom-approaching" to="left-exit" type="L0-HDV-"/>
    <trip id="L0-HDV-203" depart="2556.00" from="bottom-approaching" to="right-exit" type="L0-HDV-"/>
    <trip id="L0-HDV-204" depart="2568.00" from="top-approaching" to="top-exit" type="L0-HDV-"/>
    <trip id="L0-HDV-205" depart="2580.00" from="left-long-approaching" to="top-exit" type="L0-HDV-"/>
    <trip id="L0-HDV-206" depart="2592.00" from="left-long-approaching" to="left-exit" type="L0-HDV-"/>
    <trip id="L0-HDV-207" depart="2604.00" from="right-approaching" to="bottom-exit" type="L0-HDV-"/>
    <trip id="L0-HDV-208" depart="2616.00" from="bottom-approaching" to="top-exit" type="L0-HDV-"/>
    <trip id="L0-HDV-209" depart="2628.00" from="left-long-approaching" to="left-exit" type="L0-HDV-"/>
    <trip id="L0-HDV-210" depart="2640.00" from="right-approaching" to="right-exit" type="L0-HDV-"/>
    <trip id="L0-HDV-211" depart="2652.00" from="bottom-approaching" to="left-exit" type="L0-HDV-"/>
    <trip id="L0-HDV-212" depart="2664.00" from="left-long-approaching" to="left-exit" type="L0-HDV-"/>
    <trip id="L0-HDV-213" depart="2676.00" from="bottom-approaching" to="right-exit" type="L0-HDV-"/>
    <trip id="L0-HDV-214" depart="2688.00" from="top-approaching" to="left-exit" type="L0-HDV-"/>
    <trip id="L0-HDV-215" depart="2700.00" from="right-approaching" to="bottom-exit" type="L0-HDV-"/>
    <trip id="L0-HDV-216" depart="2712.00" from="left-long-approaching" to="right-exit" type="L0-HDV-"/>
    <trip id="L0-HDV-217" depart="2724.00" from="bottom-approaching" to="top-exit" type="L0-HDV-"/>
    <trip id="L0-HDV-218" depart="2736.00" from="top-approaching" to="bottom-exit" type="L0-HDV-"/>
    <trip id="L0-HDV-219" depart="2748.00" from="top-approaching" to="left-exit" type="L0-HDV-"/>
    <trip id="L0-HDV-220" depart="2760.00" from="top-approaching" to="top-exit" type="L0-HDV-"/>
    <trip id="L0-HDV-221" depart="2772.00" from="left-long-approaching" to="right-exit" type="L0-HDV-"/>
    <trip id="L0-HDV-222" depart="2784.00" from="right-approaching" to="top-exit" type="L0-HDV-"/>
    <trip id="L0-HDV-223" depart="2796.00" from="left-long-approaching" to="top-exit" type="L0-HDV-"/>
    <trip id="L0-HDV-224" depart="2808.00" from="top-approaching" to="right-exit" type="L0-HDV-"/>
    <trip id="L0-HDV-225" depart="2820.00" from="right-approaching" to="bottom-exit" type="L0-HDV-"/>
    <trip id="L0-HDV-226" depart="2832.00" from="left-long-approaching" to="left-exit" type="L0-HDV-"/>
    <trip id="L0-HDV-227" depart="2844.00" from="right-approaching" to="right-exit" type="L0-HDV-"/>
    <trip id="L0-HDV-228" depart="2856.00" from="right-approaching" to="bottom-exit" type="L0-HDV-"/>
    <trip id="L0-HDV-229" depart="2868.00" from="right-approaching" to="right-exit" type="L0-HDV-"/>
    <trip id="L0-HDV-230" depart="2880.00" from="bottom-approaching" to="top-exit" type="L0-HDV-"/>
    <trip id="L0-HDV-231" depart="2892.00" from="right-approaching" to="bottom-exit" type="L0-HDV-"/>
    <trip id="L0-HDV-232" depart="2904.00" from="top-approaching" to="bottom-exit" type="L0-HDV-"/>
    <trip id="L0-HDV-233" depart="2916.00" from="left-long-approaching" to="right-exit" type="L0-HDV-"/>
    <trip id="L0-HDV-234" depart="2928.00" from="right-approaching" to="right-exit" type="L0-HDV-"/>
    <trip id="L0-HDV-235" depart="2940.00" from="right-approaching" to="left-exit" type="L0-HDV-"/>
    <trip id="L0-HDV-236" depart="2952.00" from="left-long-approaching" to="bottom-exit" type="L0-HDV-"/>
    <trip id="L0-HDV-237" depart="2964.00" from="bottom-approaching" to="right-exit" type="L0-HDV-"/>
    <trip id="L0-HDV-238" depart="2976.00" from="top-approaching" to="right-exit" type="L0-HDV-"/>
    <trip id="L0-HDV-239" depart="2988.00" from="right-approaching" to="left-exit" type="L0-HDV-"/>
    <trip id="L0-HDV-240" depart="3000.00" from="left-long-approaching" to="left-exit" type="L0-HDV-"/>
    <trip id="L0-HDV-241" depart="3012.00" from="top-approaching" to="bottom-exit" type="L0-HDV-"/>
    <trip id="L0-HDV-242" depart="3024.00" from="left-short-approaching" to="left-exit" type="L0-HDV-"/>
    <trip id="L0-HDV-243" depart="3036.00" from="top-approaching" to="left-exit" type="L0-HDV-"/>
    <trip id="L0-HDV-244" depart="3048.00" from="left-long-approaching" to="left-exit" type="L0-HDV-"/>
    <trip id="L0-HDV-245" depart="3060.00" from="right-approaching" to="top-exit" type="L0-HDV-"/>
    <trip id="L0-HDV-246" depart="3072.00" from="left-long-approaching" to="top-exit" type="L0-HDV-"/>
    <trip id="L0-HDV-247" depart="3084.00" from="bottom-approaching" to="left-exit" type="L0-HDV-"/>
    <trip id="L0-HDV-248" depart="3096.00" from="bottom-approaching" to="bottom-exit" type="L0-HDV-"/>
    <trip id="L0-HDV-249" depart="3108.00" from="top-approaching" to="right-exit" type="L0-HDV-"/>
    <trip id="L0-HDV-250" depart="3120.00" from="bottom-approaching" to="bottom-exit" type="L0-HDV-"/>
    <trip id="L0-HDV-251" depart="3132.00" from="left-long-approaching" to="right-exit" type="L0-HDV-"/>
    <trip id="L0-HDV-252" depart="3144.00" from="top-approaching" to="right-exit" type="L0-HDV-"/>
    <trip id="L0-HDV-253" depart="3156.00" from="right-approaching" to="bottom-exit" type="L0-HDV-"/>
    <trip id="L0-HDV-254" depart="3168.00" from="left-long-approaching" to="bottom-exit" type="L0-HDV-"/>
    <trip id="L0-HDV-255" depart="3180.00" from="right-approaching" to="right-exit" type="L0-HDV-"/>
    <trip id="L0-HDV-256" depart="3192.00" from="bottom-approaching" to="left-exit" type="L0-HDV-"/>
    <trip id="L0-HDV-257" depart="3204.00" from="top-approaching" to="bottom-exit" type="L0-HDV-"/>
    <trip id="L0-HDV-258" depart="3216.00" from="top-approaching" to="top-exit" type="L0-HDV-"/>
    <trip id="L0-HDV-259" depart="3228.00" from="top-approaching" to="left-exit" type="L0-HDV-"/>
    <trip id="L0-HDV-260" depart="3240.00" from="right-approaching" to="right-exit" type="L0-HDV-"/>
    <trip id="L0-HDV-261" depart="3252.00" from="right-approaching" to="top-exit" type="L0-HDV-"/>
    <trip id="L0-HDV-262" depart="3264.00" from="right-approaching" to="left-exit" type="L0-HDV-"/>
    <trip id="L0-HDV-263" depart="3276.00" from="top-approaching" to="left-exit" type="L0-HDV-"/>
    <trip id="L0-HDV-264" depart="3288.00" from="right-approaching" to="right-exit" type="L0-HDV-"/>
    <trip id="L0-HDV-265" depart="3300.00" from="bottom-approaching" to="top-exit" type="L0-HDV-"/>
    <trip id="L0-HDV-266" depart="3312.00" from="right-approaching" to="left-exit" type="L0-HDV-"/>
    <trip id="L0-HDV-267" depart="3324.00" from="right-approaching" to="left-exit" type="L0-HDV-"/>
    <trip id="L0-HDV-268" depart="3336.00" from="bottom-approaching" to="right-exit" type="L0-HDV-"/>
    <trip id="L0-HDV-269" depart="3348.00" from="bottom-approaching" to="left-short-approaching" type="L0-HDV-"/>
    <trip id="L0-HDV-270" depart="3360.00" from="right-approaching" to="left-exit" type="L0-HDV-"/>
    <trip id="L0-HDV-271" depart="3372.00" from="right-approaching" to="top-exit" type="L0-HDV-"/>
    <trip id="L0-HDV-272" depart="3384.00" from="top-approaching" to="bottom-exit" type="L0-HDV-"/>
    <trip id="L0-HDV-273" depart="3396.00" from="top-approaching" to="right-exit" type="L0-HDV-"/>
    <trip id="L0-HDV-274" depart="3408.00" from="bottom-approaching" to="left-exit" type="L0-HDV-"/>
    <trip id="L0-HDV-275" depart="3420.00" from="bottom-approaching" to="bottom-exit" type="L0-HDV-"/>
    <trip id="L0-HDV-276" depart="3432.00" from="right-approaching" to="top-exit" type="L0-HDV-"/>
    <trip id="L0-HDV-277" depart="3444.00" from="left-long-approaching" to="top-exit" type="L0-HDV-"/>
    <trip id="L0-HDV-278" depart="3456.00" from="right-approaching" to="bottom-exit" type="L0-HDV-"/>
    <trip id="L0-HDV-279" depart="3468.00" from="top-approaching" to="right-exit" type="L0-HDV-"/>
    <trip id="L0-HDV-280" depart="3480.00" from="top-approaching" to="right-exit" type="L0-HDV-"/>
    <trip id="L0-HDV-281" depart="3492.00" from="right-approaching" to="left-exit" type="L0-HDV-"/>
    <trip id="L0-HDV-282" depart="3504.00" from="top-approaching" to="top-exit" type="L0-HDV-"/>
    <trip id="L0-HDV-283" depart="3516.00" from="top-approaching" to="left-exit" type="L0-HDV-"/>
    <trip id="L0-HDV-284" depart="3528.00" from="top-approaching" to="left-exit" type="L0-HDV-"/>
    <trip id="L0-HDV-285" depart="3540.00" from="bottom-approaching" to="bottom-exit" type="L0-HDV-"/>
    <trip id="L0-HDV-286" depart="3552.00" from="bottom-approaching" to="bottom-exit" type="L0-HDV-"/>
    <trip id="L0-HDV-287" depart="3564.00" from="bottom-approaching" to="left-exit-blockage" type="L0-HDV-"/>
    <trip id="L0-HDV-288" depart="3576.00" from="right-approaching" to="right-exit" type="L0-HDV-"/>
    <trip id="L0-HDV-289" depart="3588.00" from="left-long-approaching" to="right-exit" type="L0-HDV-"/>
</routes>
