<?xml version="1.0" encoding="UTF-8"?>
<!-- generated on 2021-03-29 22:15:31.998904 by $Id$ v1_8_0+0044-4820708f3d
  options: -n Roadworks/RoadworksIntersection.net.xml <doubleminus>fringe-factor 40 -r Roadworks/BaselineCAV/Route-Files/L4-CV-Route.rou.xml <doubleminus>trip-attributes=type="L4-CV-" -l <doubleminus>prefix L4-CV- <doubleminus>seed 0 -p 1.07
-->
<routes xmlns:xsi="http://www.w3.org/2001/XMLSchema-instance" xsi:noNamespaceSchemaLocation="http://sumo.dlr.de/xsd/routes_file.xsd">
    <trip id="L4-CV-0" depart="0.00" from="top-approaching" to="top-exit" type="L4-CV-"/>
    <trip id="L4-CV-1" depart="1.07" from="left-long-approaching" to="left-exit" type="L4-CV-"/>
    <trip id="L4-CV-2" depart="2.14" from="right-approaching" to="left-exit" type="L4-CV-"/>
    <trip id="L4-CV-3" depart="3.21" from="top-approaching" to="left-exit" type="L4-CV-"/>
    <trip id="L4-CV-4" depart="4.28" from="left-long-approaching" to="right-exit" type="L4-CV-"/>
    <trip id="L4-CV-5" depart="5.35" from="top-approaching" to="right-exit" type="L4-CV-"/>
    <trip id="L4-CV-6" depart="6.42" from="left-long-approaching" to="top-exit" type="L4-CV-"/>
    <trip id="L4-CV-7" depart="7.49" from="right-approaching" to="left-exit" type="L4-CV-"/>
    <trip id="L4-CV-8" depart="8.56" from="top-approaching" to="top-exit" type="L4-CV-"/>
    <trip id="L4-CV-9" depart="9.63" from="top-approaching" to="top-exit" type="L4-CV-"/>
    <trip id="L4-CV-10" depart="10.70" from="left-long-approaching" to="right-exit" type="L4-CV-"/>
    <trip id="L4-CV-11" depart="11.77" from="top-approaching" to="right-exit" type="L4-CV-"/>
    <trip id="L4-CV-12" depart="12.84" from="left-long-approaching" to="bottom-exit" type="L4-CV-"/>
    <trip id="L4-CV-13" depart="13.91" from="left-long-approaching" to="right-exit" type="L4-CV-"/>
    <trip id="L4-CV-14" depart="14.98" from="top-approaching" to="top-exit" type="L4-CV-"/>
    <trip id="L4-CV-15" depart="16.05" from="left-long-approaching" to="top-exit" type="L4-CV-"/>
    <trip id="L4-CV-16" depart="17.12" from="left-long-approaching" to="top-exit" type="L4-CV-"/>
    <trip id="L4-CV-17" depart="18.19" from="right-approaching" to="bottom-exit" type="L4-CV-"/>
    <trip id="L4-CV-18" depart="19.26" from="right-approaching" to="left-exit" type="L4-CV-"/>
    <trip id="L4-CV-19" depart="20.33" from="top-approaching" to="right-exit" type="L4-CV-"/>
    <trip id="L4-CV-20" depart="21.40" from="bottom-approaching" to="left-exit" type="L4-CV-"/>
    <trip id="L4-CV-21" depart="22.47" from="top-approaching" to="bottom-exit" type="L4-CV-"/>
    <trip id="L4-CV-22" depart="23.54" from="left-long-approaching" to="top-exit" type="L4-CV-"/>
    <trip id="L4-CV-23" depart="24.61" from="bottom-approaching" to="right-exit" type="L4-CV-"/>
    <trip id="L4-CV-24" depart="25.68" from="bottom-approaching" to="top-exit" type="L4-CV-"/>
    <trip id="L4-CV-25" depart="26.75" from="top-approaching" to="left-exit" type="L4-CV-"/>
    <trip id="L4-CV-26" depart="27.82" from="bottom-approaching" to="left-exit" type="L4-CV-"/>
    <trip id="L4-CV-27" depart="28.89" from="right-approaching" to="top-exit" type="L4-CV-"/>
    <trip id="L4-CV-28" depart="29.96" from="bottom-approaching" to="right-exit" type="L4-CV-"/>
    <trip id="L4-CV-29" depart="31.03" from="right-approaching" to="right-exit" type="L4-CV-"/>
    <trip id="L4-CV-30" depart="32.10" from="top-approaching" to="right-exit" type="L4-CV-"/>
    <trip id="L4-CV-31" depart="33.17" from="top-approaching" to="right-exit" type="L4-CV-"/>
    <trip id="L4-CV-32" depart="34.24" from="right-approaching" to="left-exit" type="L4-CV-"/>
    <trip id="L4-CV-33" depart="35.31" from="right-approaching" to="left-exit" type="L4-CV-"/>
    <trip id="L4-CV-34" depart="36.38" from="right-approaching" to="left-exit" type="L4-CV-"/>
    <trip id="L4-CV-35" depart="37.45" from="bottom-approaching" to="bottom-exit" type="L4-CV-"/>
    <trip id="L4-CV-36" depart="38.52" from="right-approaching" to="right-exit" type="L4-CV-"/>
    <trip id="L4-CV-37" depart="39.59" from="left-long-approaching" to="bottom-exit" type="L4-CV-"/>
    <trip id="L4-CV-38" depart="40.66" from="top-approaching" to="top-exit" type="L4-CV-"/>
    <trip id="L4-CV-39" depart="41.73" from="top-approaching" to="top-exit" type="L4-CV-"/>
    <trip id="L4-CV-40" depart="42.80" from="top-approaching" to="top-exit" type="L4-CV-"/>
    <trip id="L4-CV-41" depart="43.87" from="right-approaching" to="left-exit" type="L4-CV-"/>
    <trip id="L4-CV-42" depart="44.94" from="right-approaching" to="left-exit" type="L4-CV-"/>
    <trip id="L4-CV-43" depart="46.01" from="top-approaching" to="top-exit" type="L4-CV-"/>
    <trip id="L4-CV-44" depart="47.08" from="top-approaching" to="right-exit" type="L4-CV-"/>
    <trip id="L4-CV-45" depart="48.15" from="top-approaching" to="right-exit" type="L4-CV-"/>
    <trip id="L4-CV-46" depart="49.22" from="left-long-approaching" to="right-exit" type="L4-CV-"/>
    <trip id="L4-CV-47" depart="50.29" from="top-approaching" to="top-exit" type="L4-CV-"/>
    <trip id="L4-CV-48" depart="51.36" from="top-approaching" to="bottom-exit" type="L4-CV-"/>
    <trip id="L4-CV-49" depart="52.43" from="right-approaching" to="left-exit" type="L4-CV-"/>
    <trip id="L4-CV-50" depart="53.50" from="right-approaching" to="top-exit" type="L4-CV-"/>
    <trip id="L4-CV-51" depart="54.57" from="bottom-approaching" to="right-exit" type="L4-CV-"/>
    <trip id="L4-CV-52" depart="55.64" from="bottom-approaching" to="bottom-exit" type="L4-CV-"/>
    <trip id="L4-CV-53" depart="56.71" from="top-approaching" to="left-exit" type="L4-CV-"/>
    <trip id="L4-CV-54" depart="57.78" from="top-approaching" to="bottom-exit" type="L4-CV-"/>
    <trip id="L4-CV-55" depart="58.85" from="bottom-approaching" to="right-exit" type="L4-CV-"/>
    <trip id="L4-CV-56" depart="59.92" from="bottom-approaching" to="right-exit" type="L4-CV-"/>
    <trip id="L4-CV-57" depart="60.99" from="top-approaching" to="right-exit" type="L4-CV-"/>
    <trip id="L4-CV-58" depart="62.06" from="right-approaching" to="bottom-exit" type="L4-CV-"/>
    <trip id="L4-CV-59" depart="63.13" from="right-approaching" to="right-exit" type="L4-CV-"/>
    <trip id="L4-CV-60" depart="64.20" from="right-approaching" to="left-exit" type="L4-CV-"/>
    <trip id="L4-CV-61" depart="65.27" from="left-long-approaching" to="top-exit" type="L4-CV-"/>
    <trip id="L4-CV-62" depart="66.34" from="bottom-approaching" to="bottom-exit" type="L4-CV-"/>
    <trip id="L4-CV-63" depart="67.41" from="top-approaching" to="bottom-exit" type="L4-CV-"/>
    <trip id="L4-CV-64" depart="68.48" from="bottom-approaching" to="bottom-exit" type="L4-CV-"/>
    <trip id="L4-CV-65" depart="69.55" from="top-approaching" to="top-exit" type="L4-CV-"/>
    <trip id="L4-CV-66" depart="70.62" from="bottom-approaching" to="left-exit" type="L4-CV-"/>
    <trip id="L4-CV-67" depart="71.69" from="bottom-approaching" to="left-exit" type="L4-CV-"/>
    <trip id="L4-CV-68" depart="72.76" from="bottom-approaching" to="right-exit" type="L4-CV-"/>
    <trip id="L4-CV-69" depart="73.83" from="left-long-approaching" to="bottom-exit" type="L4-CV-"/>
    <trip id="L4-CV-70" depart="74.90" from="preparation" to="bottom-exit" type="L4-CV-"/>
    <trip id="L4-CV-71" depart="75.97" from="bottom-approaching" to="top-exit" type="L4-CV-"/>
    <trip id="L4-CV-72" depart="77.04" from="bottom-approaching" to="left-exit" type="L4-CV-"/>
    <trip id="L4-CV-73" depart="78.11" from="right-approaching" to="top-exit" type="L4-CV-"/>
    <trip id="L4-CV-74" depart="79.18" from="top-approaching" to="bottom-exit" type="L4-CV-"/>
    <trip id="L4-CV-75" depart="80.25" from="right-approaching" to="top-exit" type="L4-CV-"/>
    <trip id="L4-CV-76" depart="81.32" from="bottom-approaching" to="right-exit" type="L4-CV-"/>
    <trip id="L4-CV-77" depart="82.39" from="top-approaching" to="left-exit" type="L4-CV-"/>
    <trip id="L4-CV-78" depart="83.46" from="left-long-approaching" to="right-exit" type="L4-CV-"/>
    <trip id="L4-CV-79" depart="84.53" from="left-long-approaching" to="bottom-exit" type="L4-CV-"/>
    <trip id="L4-CV-80" depart="85.60" from="left-long-approaching" to="left-exit" type="L4-CV-"/>
    <trip id="L4-CV-81" depart="86.67" from="right-approaching" to="right-exit" type="L4-CV-"/>
    <trip id="L4-CV-82" depart="87.74" from="left-long-approaching" to="left-exit" type="L4-CV-"/>
    <trip id="L4-CV-83" depart="88.81" from="top-approaching" to="left-exit" type="L4-CV-"/>
    <trip id="L4-CV-84" depart="89.88" from="right-approaching" to="bottom-exit" type="L4-CV-"/>
    <trip id="L4-CV-85" depart="90.95" from="right-approaching" to="left-exit" type="L4-CV-"/>
    <trip id="L4-CV-86" depart="92.02" from="bottom-approaching" to="left-exit" type="L4-CV-"/>
    <trip id="L4-CV-87" depart="93.09" from="bottom-approaching" to="top-exit" type="L4-CV-"/>
    <trip id="L4-CV-88" depart="94.16" from="left-long-approaching" to="left-exit" type="L4-CV-"/>
    <trip id="L4-CV-89" depart="95.23" from="left-long-approaching" to="top-exit" type="L4-CV-"/>
    <trip id="L4-CV-90" depart="96.30" from="right-approaching" to="right-exit" type="L4-CV-"/>
    <trip id="L4-CV-91" depart="97.37" from="right-approaching" to="left-exit" type="L4-CV-"/>
    <trip id="L4-CV-92" depart="98.44" from="left-long-approaching" to="right-exit" type="L4-CV-"/>
    <trip id="L4-CV-93" depart="99.51" from="bottom-approaching" to="bottom-exit" type="L4-CV-"/>
    <trip id="L4-CV-94" depart="100.58" from="left-long-approaching" to="bottom-exit" type="L4-CV-"/>
    <trip id="L4-CV-95" depart="101.65" from="right-approaching" to="left-exit" type="L4-CV-"/>
    <trip id="L4-CV-96" depart="102.72" from="top-approaching" to="right-exit" type="L4-CV-"/>
    <trip id="L4-CV-97" depart="103.79" from="left-long-approaching" to="left-exit" type="L4-CV-"/>
    <trip id="L4-CV-98" depart="104.86" from="right-approaching" to="left-exit" type="L4-CV-"/>
    <trip id="L4-CV-99" depart="105.93" from="right-approaching" to="bottom-exit" type="L4-CV-"/>
    <trip id="L4-CV-100" depart="107.00" from="left-long-approaching" to="left-exit" type="L4-CV-"/>
    <trip id="L4-CV-101" depart="108.07" from="bottom-approaching" to="right-exit" type="L4-CV-"/>
    <trip id="L4-CV-102" depart="109.14" from="left-long-approaching" to="right-exit" type="L4-CV-"/>
    <trip id="L4-CV-103" depart="110.21" from="top-approaching" to="top-exit" type="L4-CV-"/>
    <trip id="L4-CV-104" depart="111.28" from="left-long-approaching" to="left-exit" type="L4-CV-"/>
    <trip id="L4-CV-105" depart="112.35" from="left-long-approaching" to="top-exit" type="L4-CV-"/>
    <trip id="L4-CV-106" depart="113.42" from="top-approaching" to="top-exit" type="L4-CV-"/>
    <trip id="L4-CV-107" depart="114.49" from="bottom-approaching" to="top-exit" type="L4-CV-"/>
    <trip id="L4-CV-108" depart="115.56" from="right-approaching" to="bottom-exit" type="L4-CV-"/>
    <trip id="L4-CV-109" depart="116.63" from="right-approaching" to="top-exit" type="L4-CV-"/>
    <trip id="L4-CV-110" depart="117.70" from="left-long-approaching" to="right-exit" type="L4-CV-"/>
    <trip id="L4-CV-111" depart="118.77" from="left-long-approaching" to="bottom-exit" type="L4-CV-"/>
    <trip id="L4-CV-112" depart="119.84" from="right-approaching" to="bottom-exit" type="L4-CV-"/>
    <trip id="L4-CV-113" depart="120.91" from="top-approaching" to="right-exit" type="L4-CV-"/>
    <trip id="L4-CV-114" depart="121.98" from="bottom-approaching" to="bottom-exit" type="L4-CV-"/>
    <trip id="L4-CV-115" depart="123.05" from="right-approaching" to="top-exit" type="L4-CV-"/>
    <trip id="L4-CV-116" depart="124.12" from="left-long-approaching" to="top-exit" type="L4-CV-"/>
    <trip id="L4-CV-117" depart="125.19" from="bottom-approaching" to="top-exit" type="L4-CV-"/>
    <trip id="L4-CV-118" depart="126.26" from="left-long-approaching" to="bottom-exit" type="L4-CV-"/>
    <trip id="L4-CV-119" depart="127.33" from="left-long-approaching" to="left-exit" type="L4-CV-"/>
    <trip id="L4-CV-120" depart="128.40" from="top-approaching" to="top-exit" type="L4-CV-"/>
    <trip id="L4-CV-121" depart="129.47" from="bottom-approaching" to="right-exit" type="L4-CV-"/>
    <trip id="L4-CV-122" depart="130.54" from="right-approaching" to="left-exit" type="L4-CV-"/>
    <trip id="L4-CV-123" depart="131.61" from="top-approaching" to="left-exit" type="L4-CV-"/>
    <trip id="L4-CV-124" depart="132.68" from="bottom-approaching" to="bottom-exit" type="L4-CV-"/>
    <trip id="L4-CV-125" depart="133.75" from="right-approaching" to="right-exit" type="L4-CV-"/>
    <trip id="L4-CV-126" depart="134.82" from="top-approaching" to="top-exit" type="L4-CV-"/>
    <trip id="L4-CV-127" depart="135.89" from="top-approaching" to="bottom-exit" type="L4-CV-"/>
    <trip id="L4-CV-128" depart="136.96" from="right-approaching" to="right-exit" type="L4-CV-"/>
    <trip id="L4-CV-129" depart="138.03" from="right-approaching" to="right-exit" type="L4-CV-"/>
    <trip id="L4-CV-130" depart="139.10" from="top-approaching" to="right-exit" type="L4-CV-"/>
    <trip id="L4-CV-131" depart="140.17" from="left-long-approaching" to="right-exit" type="L4-CV-"/>
    <trip id="L4-CV-132" depart="141.24" from="bottom-approaching" to="right-exit" type="L4-CV-"/>
    <trip id="L4-CV-133" depart="142.31" from="bottom-approaching" to="bottom-exit" type="L4-CV-"/>
    <trip id="L4-CV-134" depart="143.38" from="left-long-approaching" to="top-exit" type="L4-CV-"/>
    <trip id="L4-CV-135" depart="144.45" from="right-approaching" to="left-exit" type="L4-CV-"/>
    <trip id="L4-CV-136" depart="145.52" from="right-approaching" to="bottom-exit" type="L4-CV-"/>
    <trip id="L4-CV-137" depart="146.59" from="bottom-approaching" to="top-exit" type="L4-CV-"/>
    <trip id="L4-CV-138" depart="147.66" from="left-long-approaching" to="left-exit" type="L4-CV-"/>
    <trip id="L4-CV-139" depart="148.73" from="right-approaching" to="left-exit" type="L4-CV-"/>
    <trip id="L4-CV-140" depart="149.80" from="left-long-approaching" to="bottom-exit" type="L4-CV-"/>
    <trip id="L4-CV-141" depart="150.87" from="bottom-approaching" to="bottom-exit" type="L4-CV-"/>
    <trip id="L4-CV-142" depart="151.94" from="right-approaching" to="bottom-exit" type="L4-CV-"/>
    <trip id="L4-CV-143" depart="153.01" from="left-long-approaching" to="left-exit" type="L4-CV-"/>
    <trip id="L4-CV-144" depart="154.08" from="left-long-approaching" to="bottom-exit" type="L4-CV-"/>
    <trip id="L4-CV-145" depart="155.15" from="top-approaching" to="left-exit" type="L4-CV-"/>
    <trip id="L4-CV-146" depart="156.22" from="top-approaching" to="top-exit" type="L4-CV-"/>
    <trip id="L4-CV-147" depart="157.29" from="left-long-approaching" to="left-exit" type="L4-CV-"/>
    <trip id="L4-CV-148" depart="158.36" from="right-approaching" to="left-exit" type="L4-CV-"/>
    <trip id="L4-CV-149" depart="159.43" from="left-long-approaching" to="right-exit" type="L4-CV-"/>
    <trip id="L4-CV-150" depart="160.50" from="top-approaching" to="top-exit" type="L4-CV-"/>
    <trip id="L4-CV-151" depart="161.57" from="right-approaching" to="left-exit" type="L4-CV-"/>
    <trip id="L4-CV-152" depart="162.64" from="top-approaching" to="right-exit" type="L4-CV-"/>
    <trip id="L4-CV-153" depart="163.71" from="bottom-approaching" to="bottom-exit" type="L4-CV-"/>
    <trip id="L4-CV-154" depart="164.78" from="right-approaching" to="bottom-exit" type="L4-CV-"/>
    <trip id="L4-CV-155" depart="165.85" from="bottom-approaching" to="left-exit" type="L4-CV-"/>
    <trip id="L4-CV-156" depart="166.92" from="right-approaching" to="left-exit" type="L4-CV-"/>
    <trip id="L4-CV-157" depart="167.99" from="left-long-approaching" to="right-exit" type="L4-CV-"/>
    <trip id="L4-CV-158" depart="169.06" from="right-approaching" to="left-exit" type="L4-CV-"/>
    <trip id="L4-CV-159" depart="170.13" from="left-long-approaching" to="top-exit" type="L4-CV-"/>
    <trip id="L4-CV-160" depart="171.20" from="left-long-approaching" to="top-exit" type="L4-CV-"/>
    <trip id="L4-CV-161" depart="172.27" from="left-long-approaching" to="left-exit" type="L4-CV-"/>
    <trip id="L4-CV-162" depart="173.34" from="bottom-approaching" to="top-exit" type="L4-CV-"/>
    <trip id="L4-CV-163" depart="174.41" from="right-approaching" to="top-exit" type="L4-CV-"/>
    <trip id="L4-CV-164" depart="175.48" from="left-long-approaching" to="right-exit" type="L4-CV-"/>
    <trip id="L4-CV-165" depart="176.55" from="bottom-approaching" to="left-exit" type="L4-CV-"/>
    <trip id="L4-CV-166" depart="177.62" from="bottom-approaching" to="bottom-exit" type="L4-CV-"/>
    <trip id="L4-CV-167" depart="178.69" from="top-approaching" to="bottom-exit" type="L4-CV-"/>
    <trip id="L4-CV-168" depart="179.76" from="bottom-approaching" to="bottom-exit" type="L4-CV-"/>
    <trip id="L4-CV-169" depart="180.83" from="left-long-approaching" to="right-exit" type="L4-CV-"/>
    <trip id="L4-CV-170" depart="181.90" from="bottom-approaching" to="top-exit" type="L4-CV-"/>
    <trip id="L4-CV-171" depart="182.97" from="top-approaching" to="bottom-exit" type="L4-CV-"/>
    <trip id="L4-CV-172" depart="184.04" from="left-long-approaching" to="right-exit" type="L4-CV-"/>
    <trip id="L4-CV-173" depart="185.11" from="top-approaching" to="left-exit" type="L4-CV-"/>
    <trip id="L4-CV-174" depart="186.18" from="top-approaching" to="left-exit" type="L4-CV-"/>
    <trip id="L4-CV-175" depart="187.25" from="preparation" to="preparation" type="L4-CV-"/>
    <trip id="L4-CV-176" depart="188.32" from="right-approaching" to="bottom-exit" type="L4-CV-"/>
    <trip id="L4-CV-177" depart="189.39" from="right-approaching" to="bottom-exit" type="L4-CV-"/>
    <trip id="L4-CV-178" depart="190.46" from="left-long-approaching" to="top-exit" type="L4-CV-"/>
    <trip id="L4-CV-179" depart="191.53" from="top-approaching" to="top-exit" type="L4-CV-"/>
    <trip id="L4-CV-180" depart="192.60" from="bottom-approaching" to="bottom-exit" type="L4-CV-"/>
    <trip id="L4-CV-181" depart="193.67" from="left-long-approaching" to="top-exit" type="L4-CV-"/>
    <trip id="L4-CV-182" depart="194.74" from="top-approaching" to="right-exit" type="L4-CV-"/>
    <trip id="L4-CV-183" depart="195.81" from="right-approaching" to="top-exit" type="L4-CV-"/>
    <trip id="L4-CV-184" depart="196.88" from="bottom-approaching" to="bottom-exit" type="L4-CV-"/>
    <trip id="L4-CV-185" depart="197.95" from="top-approaching" to="bottom-exit" type="L4-CV-"/>
    <trip id="L4-CV-186" depart="199.02" from="bottom-approaching" to="bottom-exit" type="L4-CV-"/>
    <trip id="L4-CV-187" depart="200.09" from="bottom-approaching" to="top-exit" type="L4-CV-"/>
    <trip id="L4-CV-188" depart="201.16" from="left-long-approaching" to="bottom-exit" type="L4-CV-"/>
    <trip id="L4-CV-189" depart="202.23" from="bottom-approaching" to="right-exit" type="L4-CV-"/>
    <trip id="L4-CV-190" depart="203.30" from="top-approaching" to="right-exit" type="L4-CV-"/>
    <trip id="L4-CV-191" depart="204.37" from="top-approaching" to="preparation" type="L4-CV-"/>
    <trip id="L4-CV-192" depart="205.44" from="right-approaching" to="right-exit" type="L4-CV-"/>
    <trip id="L4-CV-193" depart="206.51" from="top-approaching" to="top-exit" type="L4-CV-"/>
    <trip id="L4-CV-194" depart="207.58" from="top-approaching" to="right-exit" type="L4-CV-"/>
    <trip id="L4-CV-195" depart="208.65" from="top-approaching" to="bottom-exit" type="L4-CV-"/>
    <trip id="L4-CV-196" depart="209.72" from="right-approaching" to="right-exit" type="L4-CV-"/>
    <trip id="L4-CV-197" depart="210.79" from="top-approaching" to="left-exit" type="L4-CV-"/>
    <trip id="L4-CV-198" depart="211.86" from="top-approaching" to="left-exit" type="L4-CV-"/>
    <trip id="L4-CV-199" depart="212.93" from="right-approaching" to="top-exit" type="L4-CV-"/>
    <trip id="L4-CV-200" depart="214.00" from="top-approaching" to="right-exit" type="L4-CV-"/>
    <trip id="L4-CV-201" depart="215.07" from="bottom-approaching" to="bottom-exit" type="L4-CV-"/>
    <trip id="L4-CV-202" depart="216.14" from="right-approaching" to="left-exit" type="L4-CV-"/>
    <trip id="L4-CV-203" depart="217.21" from="bottom-approaching" to="top-exit" type="L4-CV-"/>
    <trip id="L4-CV-204" depart="218.28" from="top-approaching" to="left-exit" type="L4-CV-"/>
    <trip id="L4-CV-205" depart="219.35" from="left-long-approaching" to="top-exit" type="L4-CV-"/>
    <trip id="L4-CV-206" depart="220.42" from="bottom-approaching" to="right-exit" type="L4-CV-"/>
    <trip id="L4-CV-207" depart="221.49" from="bottom-approaching" to="left-exit" type="L4-CV-"/>
    <trip id="L4-CV-208" depart="222.56" from="top-approaching" to="bottom-exit" type="L4-CV-"/>
    <trip id="L4-CV-209" depart="223.63" from="bottom-approaching" to="left-exit" type="L4-CV-"/>
    <trip id="L4-CV-210" depart="224.70" from="left-long-approaching" to="top-exit" type="L4-CV-"/>
    <trip id="L4-CV-211" depart="225.77" from="right-approaching" to="right-exit" type="L4-CV-"/>
    <trip id="L4-CV-212" depart="226.84" from="bottom-approaching" to="top-exit" type="L4-CV-"/>
    <trip id="L4-CV-213" depart="227.91" from="left-long-approaching" to="right-exit" type="L4-CV-"/>
    <trip id="L4-CV-214" depart="228.98" from="left-long-approaching" to="bottom-exit" type="L4-CV-"/>
    <trip id="L4-CV-215" depart="230.05" from="left-long-approaching" to="bottom-exit" type="L4-CV-"/>
    <trip id="L4-CV-216" depart="231.12" from="bottom-approaching" to="right-exit" type="L4-CV-"/>
    <trip id="L4-CV-217" depart="232.19" from="right-approaching" to="bottom-exit" type="L4-CV-"/>
    <trip id="L4-CV-218" depart="233.26" from="right-approaching" to="left-exit" type="L4-CV-"/>
    <trip id="L4-CV-219" depart="234.33" from="left-long-approaching" to="top-exit" type="L4-CV-"/>
    <trip id="L4-CV-220" depart="235.40" from="left-long-approaching" to="top-exit" type="L4-CV-"/>
    <trip id="L4-CV-221" depart="236.47" from="right-approaching" to="left-exit" type="L4-CV-"/>
    <trip id="L4-CV-222" depart="237.54" from="right-approaching" to="left-exit" type="L4-CV-"/>
    <trip id="L4-CV-223" depart="238.61" from="bottom-approaching" to="right-exit" type="L4-CV-"/>
    <trip id="L4-CV-224" depart="239.68" from="right-approaching" to="top-exit" type="L4-CV-"/>
    <trip id="L4-CV-225" depart="240.75" from="bottom-approaching" to="top-exit" type="L4-CV-"/>
    <trip id="L4-CV-226" depart="241.82" from="top-approaching" to="top-exit" type="L4-CV-"/>
    <trip id="L4-CV-227" depart="242.89" from="top-approaching" to="right-exit" type="L4-CV-"/>
    <trip id="L4-CV-228" depart="243.96" from="top-approaching" to="right-exit" type="L4-CV-"/>
    <trip id="L4-CV-229" depart="245.03" from="top-approaching" to="bottom-exit" type="L4-CV-"/>
    <trip id="L4-CV-230" depart="246.10" from="top-approaching" to="left-exit" type="L4-CV-"/>
    <trip id="L4-CV-231" depart="247.17" from="top-approaching" to="left-exit" type="L4-CV-"/>
    <trip id="L4-CV-232" depart="248.24" from="top-approaching" to="bottom-exit" type="L4-CV-"/>
    <trip id="L4-CV-233" depart="249.31" from="bottom-approaching" to="top-exit" type="L4-CV-"/>
    <trip id="L4-CV-234" depart="250.38" from="left-long-approaching" to="top-exit" type="L4-CV-"/>
    <trip id="L4-CV-235" depart="251.45" from="top-approaching" to="right-exit" type="L4-CV-"/>
    <trip id="L4-CV-236" depart="252.52" from="right-approaching" to="bottom-exit" type="L4-CV-"/>
    <trip id="L4-CV-237" depart="253.59" from="bottom-approaching" to="top-exit" type="L4-CV-"/>
    <trip id="L4-CV-238" depart="254.66" from="top-approaching" to="top-exit" type="L4-CV-"/>
    <trip id="L4-CV-239" depart="255.73" from="right-approaching" to="left-exit" type="L4-CV-"/>
    <trip id="L4-CV-240" depart="256.80" from="left-long-approaching" to="bottom-exit" type="L4-CV-"/>
    <trip id="L4-CV-241" depart="257.87" from="left-long-approaching" to="right-exit" type="L4-CV-"/>
    <trip id="L4-CV-242" depart="258.94" from="top-approaching" to="top-exit" type="L4-CV-"/>
    <trip id="L4-CV-243" depart="260.01" from="left-long-approaching" to="bottom-exit" type="L4-CV-"/>
    <trip id="L4-CV-244" depart="261.08" from="top-approaching" to="right-exit" type="L4-CV-"/>
    <trip id="L4-CV-245" depart="262.15" from="bottom-approaching" to="left-exit" type="L4-CV-"/>
    <trip id="L4-CV-246" depart="263.22" from="right-approaching" to="bottom-exit" type="L4-CV-"/>
    <trip id="L4-CV-247" depart="264.29" from="top-approaching" to="top-exit" type="L4-CV-"/>
    <trip id="L4-CV-248" depart="265.36" from="right-approaching" to="bottom-exit" type="L4-CV-"/>
    <trip id="L4-CV-249" depart="266.43" from="bottom-approaching" to="left-exit" type="L4-CV-"/>
    <trip id="L4-CV-250" depart="267.50" from="bottom-approaching" to="left-exit" type="L4-CV-"/>
    <trip id="L4-CV-251" depart="268.57" from="bottom-approaching" to="top-exit" type="L4-CV-"/>
    <trip id="L4-CV-252" depart="269.64" from="top-approaching" to="bottom-exit" type="L4-CV-"/>
    <trip id="L4-CV-253" depart="270.71" from="top-approaching" to="bottom-exit" type="L4-CV-"/>
    <trip id="L4-CV-254" depart="271.78" from="bottom-approaching" to="right-exit" type="L4-CV-"/>
    <trip id="L4-CV-255" depart="272.85" from="top-approaching" to="bottom-exit" type="L4-CV-"/>
    <trip id="L4-CV-256" depart="273.92" from="bottom-approaching" to="left-exit" type="L4-CV-"/>
    <trip id="L4-CV-257" depart="274.99" from="bottom-approaching" to="right-exit" type="L4-CV-"/>
    <trip id="L4-CV-258" depart="276.06" from="top-approaching" to="bottom-exit" type="L4-CV-"/>
    <trip id="L4-CV-259" depart="277.13" from="bottom-approaching" to="left-exit" type="L4-CV-"/>
    <trip id="L4-CV-260" depart="278.20" from="top-approaching" to="bottom-exit" type="L4-CV-"/>
    <trip id="L4-CV-261" depart="279.27" from="top-approaching" to="left-exit" type="L4-CV-"/>
    <trip id="L4-CV-262" depart="280.34" from="left-long-approaching" to="left-exit" type="L4-CV-"/>
    <trip id="L4-CV-263" depart="281.41" from="top-approaching" to="top-exit" type="L4-CV-"/>
    <trip id="L4-CV-264" depart="282.48" from="right-approaching" to="bottom-exit" type="L4-CV-"/>
    <trip id="L4-CV-265" depart="283.55" from="top-approaching" to="bottom-exit" type="L4-CV-"/>
    <trip id="L4-CV-266" depart="284.62" from="right-approaching" to="bottom-exit" type="L4-CV-"/>
    <trip id="L4-CV-267" depart="285.69" from="top-approaching" to="top-exit" type="L4-CV-"/>
    <trip id="L4-CV-268" depart="286.76" from="top-approaching" to="left-exit" type="L4-CV-"/>
    <trip id="L4-CV-269" depart="287.83" from="bottom-approaching" to="top-exit" type="L4-CV-"/>
    <trip id="L4-CV-270" depart="288.90" from="left-long-approaching" to="left-exit" type="L4-CV-"/>
    <trip id="L4-CV-271" depart="289.97" from="bottom-approaching" to="bottom-exit" type="L4-CV-"/>
    <trip id="L4-CV-272" depart="291.04" from="bottom-approaching" to="bottom-exit" type="L4-CV-"/>
    <trip id="L4-CV-273" depart="292.11" from="bottom-approaching" to="left-exit" type="L4-CV-"/>
    <trip id="L4-CV-274" depart="293.18" from="right-approaching" to="right-exit" type="L4-CV-"/>
    <trip id="L4-CV-275" depart="294.25" from="bottom-approaching" to="left-exit" type="L4-CV-"/>
    <trip id="L4-CV-276" depart="295.32" from="right-approaching" to="bottom-exit" type="L4-CV-"/>
    <trip id="L4-CV-277" depart="296.39" from="left-long-approaching" to="left-exit" type="L4-CV-"/>
    <trip id="L4-CV-278" depart="297.46" from="top-approaching" to="bottom-exit" type="L4-CV-"/>
    <trip id="L4-CV-279" depart="298.53" from="left-long-approaching" to="left-exit" type="L4-CV-"/>
    <trip id="L4-CV-280" depart="299.60" from="right-approaching" to="left-exit" type="L4-CV-"/>
    <trip id="L4-CV-281" depart="300.67" from="bottom-approaching" to="left-exit" type="L4-CV-"/>
    <trip id="L4-CV-282" depart="301.74" from="left-long-approaching" to="top-exit" type="L4-CV-"/>
    <trip id="L4-CV-283" depart="302.81" from="top-approaching" to="left-exit" type="L4-CV-"/>
    <trip id="L4-CV-284" depart="303.88" from="right-approaching" to="right-exit" type="L4-CV-"/>
    <trip id="L4-CV-285" depart="304.95" from="top-approaching" to="left-exit" type="L4-CV-"/>
    <trip id="L4-CV-286" depart="306.02" from="left-long-approaching" to="top-exit" type="L4-CV-"/>
    <trip id="L4-CV-287" depart="307.09" from="left-long-approaching" to="closed-lane" type="L4-CV-"/>
    <trip id="L4-CV-288" depart="308.16" from="left-long-approaching" to="top-exit" type="L4-CV-"/>
    <trip id="L4-CV-289" depart="309.23" from="bottom-approaching" to="left-exit" type="L4-CV-"/>
    <trip id="L4-CV-290" depart="310.30" from="right-approaching" to="left-exit" type="L4-CV-"/>
    <trip id="L4-CV-291" depart="311.37" from="bottom-approaching" to="bottom-exit" type="L4-CV-"/>
    <trip id="L4-CV-292" depart="312.44" from="right-approaching" to="right-exit" type="L4-CV-"/>
    <trip id="L4-CV-293" depart="313.51" from="bottom-approaching" to="left-exit" type="L4-CV-"/>
    <trip id="L4-CV-294" depart="314.58" from="top-approaching" to="right-exit" type="L4-CV-"/>
    <trip id="L4-CV-295" depart="315.65" from="right-approaching" to="bottom-exit" type="L4-CV-"/>
    <trip id="L4-CV-296" depart="316.72" from="right-approaching" to="left-exit" type="L4-CV-"/>
    <trip id="L4-CV-297" depart="317.79" from="right-approaching" to="top-exit" type="L4-CV-"/>
    <trip id="L4-CV-298" depart="318.86" from="bottom-approaching" to="top-exit" type="L4-CV-"/>
    <trip id="L4-CV-299" depart="319.93" from="left-long-approaching" to="top-exit" type="L4-CV-"/>
    <trip id="L4-CV-300" depart="321.00" from="bottom-approaching" to="top-exit" type="L4-CV-"/>
    <trip id="L4-CV-301" depart="322.07" from="bottom-approaching" to="left-exit" type="L4-CV-"/>
    <trip id="L4-CV-302" depart="323.14" from="right-approaching" to="right-exit" type="L4-CV-"/>