<?xml version="1.0" encoding="UTF-8"?>
<!-- generated on 2021-03-14 22:41:44.720761 by $Id$ v1_8_0+0044-4820708f3d
  options: -n Roadworks/RoadworksIntersection.net.xml <doubleminus>fringe-factor 40 -r Roadworks/RealTMSPenetration1/Route-Files/L0-HDV-Route.rou.xml <doubleminus>trip-attributes=type="L0-HDV-" -l <doubleminus>prefix L0-HDV- <doubleminus>seed 3 -p 5.4
-->
<routes xmlns:xsi="http://www.w3.org/2001/XMLSchema-instance" xsi:noNamespaceSchemaLocation="http://sumo.dlr.de/xsd/routes_file.xsd">
    <trip id="L0-HDV-0" depart="0.00" from="bottom-approaching" to="right-exit" type="L0-HDV-"/>
    <trip id="L0-HDV-1" depart="5.40" from="left-long-approaching" to="right-exit" type="L0-HDV-"/>
    <trip id="L0-HDV-2" depart="10.80" from="right-approaching" to="bottom-exit" type="L0-HDV-"/>
    <trip id="L0-HDV-3" depart="16.20" from="bottom-approaching" to="top-exit" type="L0-HDV-"/>
    <trip id="L0-HDV-4" depart="21.60" from="left-long-approaching" to="bottom-exit" type="L0-HDV-"/>
    <trip id="L0-HDV-5" depart="27.00" from="top-approaching" to="left-exit" type="L0-HDV-"/>
    <trip id="L0-HDV-6" depart="32.40" from="top-approaching" to="left-exit" type="L0-HDV-"/>
    <trip id="L0-HDV-7" depart="37.80" from="right-approaching" to="bottom-exit" type="L0-HDV-"/>
    <trip id="L0-HDV-8" depart="43.20" from="right-approaching" to="top-exit" type="L0-HDV-"/>
    <trip id="L0-HDV-9" depart="48.60" from="right-approaching" to="right-exit" type="L0-HDV-"/>
    <trip id="L0-HDV-10" depart="54.00" from="right-approaching" to="bottom-exit" type="L0-HDV-"/>
    <trip id="L0-HDV-11" depart="59.40" from="top-approaching" to="right-exit" type="L0-HDV-"/>
    <trip id="L0-HDV-12" depart="64.80" from="left-long-approaching" to="bottom-exit" type="L0-HDV-"/>
    <trip id="L0-HDV-13" depart="70.20" from="top-approaching" to="left-exit" type="L0-HDV-"/>
    <trip id="L0-HDV-14" depart="75.60" from="right-approaching" to="top-exit" type="L0-HDV-"/>
    <trip id="L0-HDV-15" depart="81.00" from="right-approaching" to="top-exit" type="L0-HDV-"/>
    <trip id="L0-HDV-16" depart="86.40" from="left-long-approaching" to="top-exit" type="L0-HDV-"/>
    <trip id="L0-HDV-17" depart="91.80" from="left-long-approaching" to="top-exit" type="L0-HDV-"/>
    <trip id="L0-HDV-18" depart="97.20" from="top-approaching" to="bottom-exit" type="L0-HDV-"/>
    <trip id="L0-HDV-19" depart="102.60" from="bottom-approaching" to="bottom-exit" type="L0-HDV-"/>
    <trip id="L0-HDV-20" depart="108.00" from="top-approaching" to="left-exit" type="L0-HDV-"/>
    <trip id="L0-HDV-21" depart="113.40" from="right-approaching" to="left-exit" type="L0-HDV-"/>
    <trip id="L0-HDV-22" depart="118.80" from="right-approaching" to="left-exit" type="L0-HDV-"/>
    <trip id="L0-HDV-23" depart="124.20" from="left-long-approaching" to="right-exit" type="L0-HDV-"/>
    <trip id="L0-HDV-24" depart="129.60" from="right-approaching" to="top-exit" type="L0-HDV-"/>
    <trip id="L0-HDV-25" depart="135.00" from="right-approaching" to="top-exit" type="L0-HDV-"/>
    <trip id="L0-HDV-26" depart="140.40" from="top-approaching" to="top-exit" type="L0-HDV-"/>
    <trip id="L0-HDV-27" depart="145.80" from="right-approaching" to="bottom-exit" type="L0-HDV-"/>
    <trip id="L0-HDV-28" depart="151.20" from="top-approaching" to="top-exit" type="L0-HDV-"/>
    <trip id="L0-HDV-29" depart="156.60" from="top-approaching" to="right-exit" type="L0-HDV-"/>
    <trip id="L0-HDV-30" depart="162.00" from="right-approaching" to="bottom-exit" type="L0-HDV-"/>
    <trip id="L0-HDV-31" depart="167.40" from="top-approaching" to="right-exit" type="L0-HDV-"/>
    <trip id="L0-HDV-32" depart="172.80" from="left-long-approaching" to="bottom-exit" type="L0-HDV-"/>
    <trip id="L0-HDV-33" depart="178.20" from="top-approaching" to="top-exit" type="L0-HDV-"/>
    <trip id="L0-HDV-34" depart="183.60" from="bottom-approaching" to="top-exit" type="L0-HDV-"/>
    <trip id="L0-HDV-35" depart="189.00" from="left-long-approaching" to="bottom-exit" type="L0-HDV-"/>
    <trip id="L0-HDV-36" depart="194.40" from="left-long-approaching" to="top-exit" type="L0-HDV-"/>
    <trip id="L0-HDV-37" depart="199.80" from="top-approaching" to="bottom-exit" type="L0-HDV-"/>
    <trip id="L0-HDV-38" depart="205.20" from="right-approaching" to="bottom-exit" type="L0-HDV-"/>
    <trip id="L0-HDV-39" depart="210.60" from="right-approaching" to="left-exit" type="L0-HDV-"/>
    <trip id="L0-HDV-40" depart="216.00" from="top-approaching" to="top-exit" type="L0-HDV-"/>
    <trip id="L0-HDV-41" depart="221.40" from="right-approaching" to="top-exit" type="L0-HDV-"/>
    <trip id="L0-HDV-42" depart="226.80" from="left-long-approaching" to="bottom-exit" type="L0-HDV-"/>
    <trip id="L0-HDV-43" depart="232.20" from="right-approaching" to="bottom-exit" type="L0-HDV-"/>
    <trip id="L0-HDV-44" depart="237.60" from="bottom-approaching" to="left-exit" type="L0-HDV-"/>
    <trip id="L0-HDV-45" depart="243.00" from="right-approaching" to="bottom-exit" type="L0-HDV-"/>
    <trip id="L0-HDV-46" depart="248.40" from="bottom-approaching" to="top-exit" type="L0-HDV-"/>
    <trip id="L0-HDV-47" depart="253.80" from="left-long-approaching" to="top-exit" type="L0-HDV-"/>
    <trip id="L0-HDV-48" depart="259.20" from="top-approaching" to="left-exit" type="L0-HDV-"/>
    <trip id="L0-HDV-49" depart="264.60" from="left-long-approaching" to="right-exit" type="L0-HDV-"/>
    <trip id="L0-HDV-50" depart="270.00" from="right-approaching" to="right-exit" type="L0-HDV-"/>
    <trip id="L0-HDV-51" depart="275.40" from="right-approaching" to="right-exit" type="L0-HDV-"/>
    <trip id="L0-HDV-52" depart="280.80" from="top-approaching" to="right-exit" type="L0-HDV-"/>
    <trip id="L0-HDV-53" depart="286.20" from="left-long-approaching" to="right-exit" type="L0-HDV-"/>
    <trip id="L0-HDV-54" depart="291.60" from="bottom-approaching" to="left-exit" type="L0-HDV-"/>
    <trip id="L0-HDV-55" depart="297.00" from="top-approaching" to="right-exit" type="L0-HDV-"/>
    <trip id="L0-HDV-56" depart="302.40" from="right-approaching" to="bottom-exit" type="L0-HDV-"/>
    <trip id="L0-HDV-57" depart="307.80" from="left-long-approaching" to="right-exit" type="L0-HDV-"/>
    <trip id="L0-HDV-58" depart="313.20" from="bottom-approaching" to="right-exit" type="L0-HDV-"/>
    <trip id="L0-HDV-59" depart="318.60" from="right-approaching" to="bottom-exit" type="L0-HDV-"/>
    <trip id="L0-HDV-60" depart="324.00" from="right-approaching" to="left-exit" type="L0-HDV-"/>
    <trip id="L0-HDV-61" depart="329.40" from="right-approaching" to="left-exit" type="L0-HDV-"/>
    <trip id="L0-HDV-62" depart="334.80" from="right-approaching" to="right-exit" type="L0-HDV-"/>
    <trip id="L0-HDV-63" depart="340.20" from="bottom-approaching" to="bottom-exit" type="L0-HDV-"/>
    <trip id="L0-HDV-64" depart="345.60" from="right-approaching" to="top-exit" type="L0-HDV-"/>
    <trip id="L0-HDV-65" depart="351.00" from="left-long-approaching" to="left-exit" type="L0-HDV-"/>
    <trip id="L0-HDV-66" depart="356.40" from="right-approaching" to="left-exit" type="L0-HDV-"/>
    <trip id="L0-HDV-67" depart="361.80" from="left-long-approaching" to="left-exit" type="L0-HDV-"/>
    <trip id="L0-HDV-68" depart="367.20" from="left-long-approaching" to="right-exit" type="L0-HDV-"/>
    <trip id="L0-HDV-69" depart="372.60" from="left-long-approaching" to="left-exit" type="L0-HDV-"/>
    <trip id="L0-HDV-70" depart="378.00" from="top-approaching" to="bottom-exit" type="L0-HDV-"/>
    <trip id="L0-HDV-71" depart="383.40" from="right-approaching" to="right-exit" type="L0-HDV-"/>
    <trip id="L0-HDV-72" depart="388.80" from="left-long-approaching" to="bottom-exit" type="L0-HDV-"/>
    <trip id="L0-HDV-73" depart="394.20" from="top-approaching" to="bottom-exit" type="L0-HDV-"/>
    <trip id="L0-HDV-74" depart="399.60" from="bottom-approaching" to="left-exit" type="L0-HDV-"/>
    <trip id="L0-HDV-75" depart="405.00" from="right-approaching" to="bottom-exit" type="L0-HDV-"/>
    <trip id="L0-HDV-76" depart="410.40" from="left-long-approaching" to="left-exit" type="L0-HDV-"/>
    <trip id="L0-HDV-77" depart="415.80" from="top-approaching" to="left-exit" type="L0-HDV-"/>
    <trip id="L0-HDV-78" depart="421.20" from="top-approaching" to="bottom-exit" type="L0-HDV-"/>
    <trip id="L0-HDV-79" depart="426.60" from="left-long-approaching" to="right-exit" type="L0-HDV-"/>
    <trip id="L0-HDV-80" depart="432.00" from="top-approaching" to="left-exit" type="L0-HDV-"/>
    <trip id="L0-HDV-81" depart="437.40" from="bottom-approaching" to="bottom-exit" type="L0-HDV-"/>
    <trip id="L0-HDV-82" depart="442.80" from="right-approaching" to="bottom-exit" type="L0-HDV-"/>
    <trip id="L0-HDV-83" depart="448.20" from="top-approaching" to="top-exit" type="L0-HDV-"/>
    <trip id="L0-HDV-84" depart="453.60" from="bottom-approaching" to="left-exit" type="L0-HDV-"/>
    <trip id="L0-HDV-85" depart="459.00" from="top-approaching" to="right-exit" type="L0-HDV-"/>
    <trip id="L0-HDV-86" depart="464.40" from="top-approaching" to="left-exit" type="L0-HDV-"/>
    <trip id="L0-HDV-87" depart="469.80" from="bottom-approaching" to="left-exit" type="L0-HDV-"/>
    <trip id="L0-HDV-88" depart="475.20" from="top-approaching" to="left-exit" type="L0-HDV-"/>
    <trip id="L0-HDV-89" depart="480.60" from="left-long-approaching" to="left-exit" type="L0-HDV-"/>
    <trip id="L0-HDV-90" depart="486.00" from="left-long-approaching" to="left-exit" type="L0-HDV-"/>
    <trip id="L0-HDV-91" depart="491.40" from="top-approaching" to="bottom-exit" type="L0-HDV-"/>
    <trip id="L0-HDV-92" depart="496.80" from="bottom-approaching" to="top-exit" type="L0-HDV-"/>
    <trip id="L0-HDV-93" depart="502.20" from="top-approaching" to="top-exit" type="L0-HDV-"/>
    <trip id="L0-HDV-94" depart="507.60" from="left-long-approaching" to="top-exit" type="L0-HDV-"/>
    <trip id="L0-HDV-95" depart="513.00" from="top-approaching" to="bottom-exit" type="L0-HDV-"/>
    <trip id="L0-HDV-96" depart="518.40" from="right-approaching" to="top-exit" type="L0-HDV-"/>
    <trip id="L0-HDV-97" depart="523.80" from="right-approaching" to="right-exit" type="L0-HDV-"/>
    <trip id="L0-HDV-98" depart="529.20" from="left-long-approaching" to="left-exit" type="L0-HDV-"/>
    <trip id="L0-HDV-99" depart="534.60" from="bottom-approaching" to="bottom-exit" type="L0-HDV-"/>
    <trip id="L0-HDV-100" depart="540.00" from="right-approaching" to="left-exit" type="L0-HDV-"/>
    <trip id="L0-HDV-101" depart="545.40" from="top-approaching" to="bottom-exit" type="L0-HDV-"/>
    <trip id="L0-HDV-102" depart="550.80" from="top-approaching" to="right-exit" type="L0-HDV-"/>
    <trip id="L0-HDV-103" depart="556.20" from="top-approaching" to="top-exit" type="L0-HDV-"/>
    <trip id="L0-HDV-104" depart="561.60" from="top-approaching" to="right-exit" type="L0-HDV-"/>
    <trip id="L0-HDV-105" depart="567.00" from="bottom-approaching" to="right-exit" type="L0-HDV-"/>
    <trip id="L0-HDV-106" depart="572.40" from="bottom-approaching" to="left-exit" type="L0-HDV-"/>
    <trip id="L0-HDV-107" depart="577.80" from="right-approaching" to="right-exit" type="L0-HDV-"/>
    <trip id="L0-HDV-108" depart="583.20" from="left-long-approaching" to="top-exit" type="L0-HDV-"/>
    <trip id="L0-HDV-109" depart="588.60" from="right-approaching" to="left-exit" type="L0-HDV-"/>
    <trip id="L0-HDV-110" depart="594.00" from="left-long-approaching" to="top-exit" type="L0-HDV-"/>
    <trip id="L0-HDV-111" depart="599.40" from="left-long-approaching" to="top-exit" type="L0-HDV-"/>
    <trip id="L0-HDV-112" depart="604.80" from="left-long-approaching" to="bottom-exit" type="L0-HDV-"/>
    <trip id="L0-HDV-113" depart="610.20" from="right-approaching" to="top-exit" type="L0-HDV-"/>
    <trip id="L0-HDV-114" depart="615.60" from="bottom-approaching" to="top-exit" type="L0-HDV-"/>
    <trip id="L0-HDV-115" depart="621.00" from="top-approaching" to="top-exit" type="L0-HDV-"/>
    <trip id="L0-HDV-116" depart="626.40" from="top-approaching" to="bottom-exit" type="L0-HDV-"/>
    <trip id="L0-HDV-117" depart="631.80" from="right-approaching" to="top-exit" type="L0-HDV-"/>
    <trip id="L0-HDV-118" depart="637.20" from="bottom-approaching" to="left-exit" type="L0-HDV-"/>
    <trip id="L0-HDV-119" depart="642.60" from="left-long-approaching" to="right-exit" type="L0-HDV-"/>
    <trip id="L0-HDV-120" depart="648.00" from="left-long-approaching" to="left-exit" type="L0-HDV-"/>
    <trip id="L0-HDV-121" depart="653.40" from="top-approaching" to="bottom-exit" type="L0-HDV-"/>
    <trip id="L0-HDV-122" depart="658.80" from="bottom-approaching" to="bottom-exit" type="L0-HDV-"/>
    <trip id="L0-HDV-123" depart="664.20" from="bottom-approaching" to="bottom-exit" type="L0-HDV-"/>
    <trip id="L0-HDV-124" depart="669.60" from="top-approaching" to="top-exit" type="L0-HDV-"/>
    <trip id="L0-HDV-125" depart="675.00" from="bottom-approaching" to="preparation" type="L0-HDV-"/>
    <trip id="L0-HDV-126" depart="680.40" from="left-long-approaching" to="left-exit" type="L0-HDV-"/>
    <trip id="L0-HDV-127" depart="685.80" from="left-long-approaching" to="right-exit" type="L0-HDV-"/>
    <trip id="L0-HDV-128" depart="691.20" from="right-approaching" to="left-exit" type="L0-HDV-"/>
    <trip id="L0-HDV-129" depart="696.60" from="bottom-approaching" to="left-exit" type="L0-HDV-"/>
    <trip id="L0-HDV-130" depart="702.00" from="bottom-approaching" to="right-exit" type="L0-HDV-"/>
    <trip id="L0-HDV-131" depart="707.40" from="right-approaching" to="left-exit" type="L0-HDV-"/>
    <trip id="L0-HDV-132" depart="712.80" from="bottom-approaching" to="bottom-exit" type="L0-HDV-"/>
    <trip id="L0-HDV-133" depart="718.20" from="left-long-approaching" to="right-exit" type="L0-HDV-"/>
    <trip id="L0-HDV-134" depart="723.60" from="top-approaching" to="left-exit" type="L0-HDV-"/>
    <trip id="L0-HDV-135" depart="729.00" from="top-approaching" to="right-exit" type="L0-HDV-"/>
    <trip id="L0-HDV-136" depart="734.40" from="left-long-approaching" to="left-exit" type="L0-HDV-"/>
    <trip id="L0-HDV-137" depart="739.80" from="left-long-approaching" to="right-exit" type="L0-HDV-"/>
    <trip id="L0-HDV-138" depart="745.20" from="left-long-approaching" to="right-exit" type="L0-HDV-"/>
    <trip id="L0-HDV-139" depart="750.60" from="left-long-approaching" to="bottom-exit" type="L0-HDV-"/>
    <trip id="L0-HDV-140" depart="756.00" from="right-approaching" to="right-exit" type="L0-HDV-"/>
    <trip id="L0-HDV-141" depart="761.40" from="bottom-approaching" to="left-exit" type="L0-HDV-"/>
    <trip id="L0-HDV-142" depart="766.80" from="left-long-approaching" to="top-exit" type="L0-HDV-"/>
    <trip id="L0-HDV-143" depart="772.20" from="top-approaching" to="left-exit" type="L0-HDV-"/>
    <trip id="L0-HDV-144" depart="777.60" from="top-approaching" to="top-exit" type="L0-HDV-"/>
    <trip id="L0-HDV-145" depart="783.00" from="left-long-approaching" to="left-exit" type="L0-HDV-"/>
    <trip id="L0-HDV-146" depart="788.40" from="bottom-approaching" to="top-exit" type="L0-HDV-"/>
    <trip id="L0-HDV-147" depart="793.80" from="right-approaching" to="top-exit" type="L0-HDV-"/>
    <trip id="L0-HDV-148" depart="799.20" from="top-approaching" to="right-exit" type="L0-HDV-"/>
    <trip id="L0-HDV-149" depart="804.60" from="right-approaching" to="right-exit" type="L0-HDV-"/>
    <trip id="L0-HDV-150" depart="810.00" from="bottom-approaching" to="right-exit" type="L0-HDV-"/>
    <trip id="L0-HDV-151" depart="815.40" from="bottom-approaching" to="bottom-exit" type="L0-HDV-"/>
    <trip id="L0-HDV-152" depart="820.80" from="top-approaching" to="bottom-exit" type="L0-HDV-"/>
    <trip id="L0-HDV-153" depart="826.20" from="bottom-approaching" to="bottom-exit" type="L0-HDV-"/>
    <trip id="L0-HDV-154" depart="831.60" from="top-approaching" to="bottom-exit" type="L0-HDV-"/>
    <trip id="L0-HDV-155" depart="837.00" from="bottom-approaching" to="top-exit" type="L0-HDV-"/>
    <trip id="L0-HDV-156" depart="842.40" from="bottom-approaching" to="top-exit" type="L0-HDV-"/>
    <trip id="L0-HDV-157" depart="847.80" from="right-approaching" to="top-exit" type="L0-HDV-"/>
    <trip id="L0-HDV-158" depart="853.20" from="top-approaching" to="right-exit" type="L0-HDV-"/>
    <trip id="L0-HDV-159" depart="858.60" from="top-approaching" to="bottom-exit" type="L0-HDV-"/>
    <trip id="L0-HDV-160" depart="864.00" from="top-approaching" to="right-exit" type="L0-HDV-"/>
    <trip id="L0-HDV-161" depart="869.40" from="right-approaching" to="bottom-exit" type="L0-HDV-"/>
    <trip id="L0-HDV-162" depart="874.80" from="right-approaching" to="top-exit" type="L0-HDV-"/>
    <trip id="L0-HDV-163" depart="880.20" from="bottom-approaching" to="left-exit" type="L0-HDV-"/>
    <trip id="L0-HDV-164" depart="885.60" from="right-approaching" to="top-exit" type="L0-HDV-"/>
    <trip id="L0-HDV-165" depart="891.00" from="bottom-approaching" to="bottom-exit" type="L0-HDV-"/>
    <trip id="L0-HDV-166" depart="896.40" from="left-long-approaching" to="right-exit" type="L0-HDV-"/>
    <trip id="L0-HDV-167" depart="901.80" from="top-approaching" to="left-exit" type="L0-HDV-"/>
    <trip id="L0-HDV-168" depart="907.20" from="left-long-approaching" to="left-exit" type="L0-HDV-"/>
    <trip id="L0-HDV-169" depart="912.60" from="left-long-approaching" to="left-exit" type="L0-HDV-"/>
    <trip id="L0-HDV-170" depart="918.00" from="bottom-approaching" to="preparation" type="L0-HDV-"/>
    <trip id="L0-HDV-171" depart="923.40" from="top-approaching" to="left-exit" type="L0-HDV-"/>
    <trip id="L0-HDV-172" depart="928.80" from="right-approaching" to="bottom-exit" type="L0-HDV-"/>
    <trip id="L0-HDV-173" depart="934.20" from="right-approaching" to="top-exit" type="L0-HDV-"/>
    <trip id="L0-HDV-174" depart="939.60" from="right-approaching" to="right-exit" type="L0-HDV-"/>
    <trip id="L0-HDV-175" depart="945.00" from="left-long-approaching" to="right-exit" type="L0-HDV-"/>
    <trip id="L0-HDV-176" depart="950.40" from="top-approaching" to="bottom-exit" type="L0-HDV-"/>
    <trip id="L0-HDV-177" depart="955.80" from="bottom-approaching" to="right-exit" type="L0-HDV-"/>
    <trip id="L0-HDV-178" depart="961.20" from="top-approaching" to="right-exit" type="L0-HDV-"/>
    <trip id="L0-HDV-179" depart="966.60" from="left-long-approaching" to="right-exit" type="L0-HDV-"/>
    <trip id="L0-HDV-180" depart="972.00" from="bottom-approaching" to="left-exit" type="L0-HDV-"/>
    <trip id="L0-HDV-181" depart="977.40" from="bottom-approaching" to="right-exit" type="L0-HDV-"/>
    <trip id="L0-HDV-182" depart="982.80" from="left-long-approaching" to="bottom-exit" type="L0-HDV-"/>
    <trip id="L0-HDV-183" depart="988.20" from="right-approaching" to="top-exit" type="L0-HDV-"/>
    <trip id="L0-HDV-184" depart="993.60" from="left-long-approaching" to="right-exit" type="L0-HDV-"/>
    <trip id="L0-HDV-185" depart="999.00" from="left-long-approaching" to="top-exit" type="L0-HDV-"/>
    <trip id="L0-HDV-186" depart="1004.40" from="right-approaching" to="left-exit" type="L0-HDV-"/>
    <trip id="L0-HDV-187" depart="1009.80" from="bottom-approaching" to="bottom-exit" type="L0-HDV-"/>
    <trip id="L0-HDV-188" depart="1015.20" from="left-long-approaching" to="left-exit" type="L0-HDV-"/>
    <trip id="L0-HDV-189" depart="1020.60" from="bottom-approaching" to="left-exit" type="L0-HDV-"/>
    <trip id="L0-HDV-190" depart="1026.00" from="left-long-approaching" to="top-exit" type="L0-HDV-"/>
    <trip id="L0-HDV-191" depart="1031.40" from="bottom-approaching" to="top-exit" type="L0-HDV-"/>
    <trip id="L0-HDV-192" depart="1036.80" from="left-long-approaching" to="right-exit" type="L0-HDV-"/>
    <trip id="L0-HDV-193" depart="1042.20" from="left-long-approaching" to="top-exit" type="L0-HDV-"/>
    <trip id="L0-HDV-194" depart="1047.60" from="top-approaching" to="right-exit" type="L0-HDV-"/>
    <trip id="L0-HDV-195" depart="1053.00" from="left-long-approaching" to="right-exit" type="L0-HDV-"/>
    <trip id="L0-HDV-196" depart="1058.40" from="top-approaching" to="left-exit" type="L0-HDV-"/>
    <trip id="L0-HDV-197" depart="1063.80" from="right-approaching" to="top-exit" type="L0-HDV-"/>
    <trip id="L0-HDV-198" depart="1069.20" from="left-long-approaching" to="bottom-exit" type="L0-HDV-"/>
    <trip id="L0-HDV-199" depart="1074.60" from="bottom-approaching" to="right-exit" type="L0-HDV-"/>
    <trip id="L0-HDV-200" depart="1080.00" from="right-approaching" to="top-exit" type="L0-HDV-"/>
    <trip id="L0-HDV-201" depart="1085.40" from="top-approaching" to="bottom-exit" type="L0-HDV-"/>
    <trip id="L0-HDV-202" depart="1090.80" from="bottom-approaching" to="left-exit" type="L0-HDV-"/>
    <trip id="L0-HDV-203" depart="1096.20" from="bottom-approaching" to="right-exit" type="L0-HDV-"/>
    <trip id="L0-HDV-204" depart="1101.60" from="top-approaching" to="top-exit" type="L0-HDV-"/>
    <trip id="L0-HDV-205" depart="1107.00" from="left-long-approaching" to="top-exit" type="L0-HDV-"/>
    <trip id="L0-HDV-206" depart="1112.40" from="left-long-approaching" to="left-exit" type="L0-HDV-"/>
    <trip id="L0-HDV-207" depart="1117.80" from="right-approaching" to="bottom-exit" type="L0-HDV-"/>
    <trip id="L0-HDV-208" depart="1123.20" from="bottom-approaching" to="top-exit" type="L0-HDV-"/>
    <trip id="L0-HDV-209" depart="1128.60" from="left-long-approaching" to="left-exit" type="L0-HDV-"/>
    <trip id="L0-HDV-210" depart="1134.00" from="right-approaching" to="right-exit" type="L0-HDV-"/>
    <trip id="L0-HDV-211" depart="1139.40" from="bottom-approaching" to="left-exit" type="L0-HDV-"/>
    <trip id="L0-HDV-212" depart="1144.80" from="left-long-approaching" to="left-exit" type="L0-HDV-"/>
    <trip id="L0-HDV-213" depart="1150.20" from="bottom-approaching" to="right-exit" type="L0-HDV-"/>
    <trip id="L0-HDV-214" depart="1155.60" from="top-approaching" to="left-exit" type="L0-HDV-"/>
    <trip id="L0-HDV-215" depart="1161.00" from="right-approaching" to="bottom-exit" type="L0-HDV-"/>
    <trip id="L0-HDV-216" depart="1166.40" from="left-long-approaching" to="right-exit" type="L0-HDV-"/>
    <trip id="L0-HDV-217" depart="1171.80" from="bottom-approaching" to="top-exit" type="L0-HDV-"/>
    <trip id="L0-HDV-218" depart="1177.20" from="top-approaching" to="bottom-exit" type="L0-HDV-"/>
    <trip id="L0-HDV-219" depart="1182.60" from="top-approaching" to="left-exit" type="L0-HDV-"/>
    <trip id="L0-HDV-220" depart="1188.00" from="top-approaching" to="top-exit" type="L0-HDV-"/>
    <trip id="L0-HDV-221" depart="1193.40" from="left-long-approaching" to="right-exit" type="L0-HDV-"/>
    <trip id="L0-HDV-222" depart="1198.80" from="right-approaching" to="top-exit" type="L0-HDV-"/>
    <trip id="L0-HDV-223" depart="1204.20" from="left-long-approaching" to="top-exit" type="L0-HDV-"/>
    <trip id="L0-HDV-224" depart="1209.60" from="top-approaching" to="right-exit" type="L0-HDV-"/>
    <trip id="L0-HDV-225" depart="1215.00" from="right-approaching" to="bottom-exit" type="L0-HDV-"/>
    <trip id="L0-HDV-226" depart="1220.40" from="left-long-approaching" to="left-exit" type="L0-HDV-"/>
    <trip id="L0-HDV-227" depart="1225.80" from="right-approaching" to="right-exit" type="L0-HDV-"/>
    <trip id="L0-HDV-228" depart="1231.20" from="right-approaching" to="bottom-exit" type="L0-HDV-"/>
    <trip id="L0-HDV-229" depart="1236.60" from="right-approaching" to="right-exit" type="L0-HDV-"/>
    <trip id="L0-HDV-230" depart="1242.00" from="bottom-approaching" to="top-exit" type="L0-HDV-"/>
    <trip id="L0-HDV-231" depart="1247.40" from="right-approaching" to="bottom-exit" type="L0-HDV-"/>
    <trip id="L0-HDV-232" depart="1252.80" from="top-approaching" to="bottom-exit" type="L0-HDV-"/>
    <trip id="L0-HDV-233" depart="1258.20" from="left-long-approaching" to="right-exit" type="L0-HDV-"/>
    <trip id="L0-HDV-234" depart="1263.60" from="right-approaching" to="right-exit" type="L0-HDV-"/>
    <trip id="L0-HDV-235" depart="1269.00" from="right-approaching" to="left-exit" type="L0-HDV-"/>
    <trip id="L0-HDV-236" depart="1274.40" from="left-long-approaching" to="bottom-exit" type="L0-HDV-"/>
    <trip id="L0-HDV-237" depart="1279.80" from="bottom-approaching" to="right-exit" type="L0-HDV-"/>
    <trip id="L0-HDV-238" depart="1285.20" from="top-approaching" to="right-exit" type="L0-HDV-"/>
    <trip id="L0-HDV-239" depart="1290.60" from="right-approaching" to="left-exit" type="L0-HDV-"/>
    <trip id="L0-HDV-240" depart="1296.00" from="left-long-approaching" to="left-exit" type="L0-HDV-"/>
    <trip id="L0-HDV-241" depart="1301.40" from="top-approaching" to="bottom-exit" type="L0-HDV-"/>
    <trip id="L0-HDV-242" depart="1306.80" from="right-approaching" to="bottom-exit" type="L0-HDV-"/>
    <trip id="L0-HDV-243" depart="1312.20" from="top-approaching" to="left-exit" type="L0-HDV-"/>
    <trip id="L0-HDV-244" depart="1317.60" from="left-long-approaching" to="left-exit" type="L0-HDV-"/>
    <trip id="L0-HDV-245" depart="1323.00" from="right-approaching" to="top-exit" type="L0-HDV-"/>
    <trip id="L0-HDV-246" depart="1328.40" from="left-long-approaching" to="top-exit" type="L0-HDV-"/>
    <trip id="L0-HDV-247" depart="1333.80" from="bottom-approaching" to="left-exit" type="L0-HDV-"/>
    <trip id="L0-HDV-248" depart="1339.20" from="bottom-approaching" to="bottom-exit" type="L0-HDV-"/>
    <trip id="L0-HDV-249" depart="1344.60" from="top-approaching" to="right-exit" type="L0-HDV-"/>
    <trip id="L0-HDV-250" depart="1350.00" from="bottom-approaching" to="bottom-exit" type="L0-HDV-"/>
    <trip id="L0-HDV-251" depart="1355.40" from="left-long-approaching" to="right-exit" type="L0-HDV-"/>
    <trip id="L0-HDV-252" depart="1360.80" from="top-approaching" to="right-exit" type="L0-HDV-"/>
    <trip id="L0-HDV-253" depart="1366.20" from="right-approaching" to="bottom-exit" type="L0-HDV-"/>
    <trip id="L0-HDV-254" depart="1371.60" from="left-long-approaching" to="bottom-exit" type="L0-HDV-"/>
    <trip id="L0-HDV-255" depart="1377.00" from="right-approaching" to="right-exit" type="L0-HDV-"/>
    <trip id="L0-HDV-256" depart="1382.40" from="bottom-approaching" to="left-exit" type="L0-HDV-"/>
    <trip id="L0-HDV-257" depart="1387.80" from="top-approaching" to="bottom-exit" type="L0-HDV-"/>
    <trip id="L0-HDV-258" depart="1393.20" from="top-approaching" to="top-exit" type="L0-HDV-"/>
    <trip id="L0-HDV-259" depart="1398.60" from="top-approaching" to="left-exit" type="L0-HDV-"/>
    <trip id="L0-HDV-260" depart="1404.00" from="right-approaching" to="right-exit" type="L0-HDV-"/>
    <trip id="L0-HDV-261" depart="1409.40" from="right-approaching" to="top-exit" type="L0-HDV-"/>
    <trip id="L0-HDV-262" depart="1414.80" from="right-approaching" to="left-exit" type="L0-HDV-"/>
    <trip id="L0-HDV-263" depart="1420.20" from="top-approaching" to="left-exit" type="L0-HDV-"/>
    <trip id="L0-HDV-264" depart="1425.60" from="right-approaching" to="right-exit" type="L0-HDV-"/>
    <trip id="L0-HDV-265" depart="1431.00" from="bottom-approaching" to="top-exit" type="L0-HDV-"/>
    <trip id="L0-HDV-266" depart="1436.40" from="right-approaching" to="left-exit" type="L0-HDV-"/>
    <trip id="L0-HDV-267" depart="1441.80" from="right-approaching" to="left-exit" type="L0-HDV-"/>
    <trip id="L0-HDV-268" depart="1447.20" from="bottom-approaching" to="right-exit" type="L0-HDV-"/>
    <trip id="L0-HDV-269" depart="1452.60" from="bottom-approaching" to="preparation" type="L0-HDV-"/>
    <trip id="L0-HDV-270" depart="1458.00" from="right-approaching" to="left-exit" type="L0-HDV-"/>
    <trip id="L0-HDV-271" depart="1463.40" from="right-approaching" to="top-exit" type="L0-HDV-"/>
    <trip id="L0-HDV-272" depart="1468.80" from="top-approaching" to="bottom-exit" type="L0-HDV-"/>
    <trip id="L0-HDV-273" depart="1474.20" from="top-approaching" to="right-exit" type="L0-HDV-"/>
    <trip id="L0-HDV-274" depart="1479.60" from="bottom-approaching" to="left-exit" type="L0-HDV-"/>
    <trip id="L0-HDV-275" depart="1485.00" from="bottom-approaching" to="bottom-exit" type="L0-HDV-"/>
    <trip id="L0-HDV-276" depart="1490.40" from="right-approaching" to="top-exit" type="L0-HDV-"/>
    <trip id="L0-HDV-277" depart="1495.80" from="left-long-approaching" to="top-exit" type="L0-HDV-"/>
    <trip id="L0-HDV-278" depart="1501.20" from="right-approaching" to="bottom-exit" type="L0-HDV-"/>
    <trip id="L0-HDV-279" depart="1506.60" from="top-approaching" to="right-exit" type="L0-HDV-"/>
    <trip id="L0-HDV-280" depart="1512.00" from="top-approaching" to="right-exit" type="L0-HDV-"/>
    <trip id="L0-HDV-281" depart="1517.40" from="right-approaching" to="left-exit" type="L0-HDV-"/>
    <trip id="L0-HDV-282" depart="1522.80" from="top-approaching" to="top-exit" type="L0-HDV-"/>
    <trip id="L0-HDV-283" depart="1528.20" from="top-approaching" to="left-exit" type="L0-HDV-"/>
    <trip id="L0-HDV-284" depart="1533.60" from="top-approaching" to="left-exit" type="L0-HDV-"/>
    <trip id="L0-HDV-285" depart="1539.00" from="bottom-approaching" to="bottom-exit" type="L0-HDV-"/>
    <trip id="L0-HDV-286" depart="1544.40" from="bottom-approaching" to="bottom-exit" type="L0-HDV-"/>
    <trip id="L0-HDV-287" depart="1549.80" from="bottom-approaching" to="left-short-approaching" type="L0-HDV-"/>
    <trip id="L0-HDV-288" depart="1555.20" from="right-approaching" to="right-exit" type="L0-HDV-"/>
    <trip id="L0-HDV-289" depart="1560.60" from="left-long-approaching" to="right-exit" type="L0-HDV-"/>
    <trip id="L0-HDV-290" depart="1566.00" from="left-long-approaching" to="left-exit" type="L0-HDV-"/>
    <trip id="L0-HDV-291" depart="1571.40" from="top-approaching" to="left-exit" type="L0-HDV-"/>
    <trip id="L0-HDV-292" depart="1576.80" from="bottom-approaching" to="top-exit" type="L0-HDV-"/>
    <trip id="L0-HDV-293" depart="1582.20" from="right-approaching" to="left-exit" type="L0-HDV-"/>