<?xml version="1.0" encoding="UTF-8"?>
<!-- generated on 2021-04-25 15:50:10.401182 by $Id$ v1_8_0+0044-4820708f3d
  options: -n Roadworks/RoadworksIntersection.net.xml <doubleminus>fringe-factor 40 -r Roadworks/BaselinePenetration3/Route-Files/L0-HDV-Route.rou.xml <doubleminus>trip-attributes=type="L0-HDV-" -l <doubleminus>prefix L0-HDV- <doubleminus>seed 2 -p 11
-->
<routes xmlns:xsi="http://www.w3.org/2001/XMLSchema-instance" xsi:noNamespaceSchemaLocation="http://sumo.dlr.de/xsd/routes_file.xsd">
    <trip id="L0-HDV-0" depart="0.00" from="top-approaching" to="top-exit" type="L0-HDV-"/>
    <trip id="L0-HDV-1" depart="11.00" from="bottom-approaching" to="bottom-exit" type="L0-HDV-"/>
    <trip id="L0-HDV-2" depart="22.00" from="top-approaching" to="right-exit" type="L0-HDV-"/>
    <trip id="L0-HDV-3" depart="33.00" from="right-approaching" to="left-exit" type="L0-HDV-"/>
    <trip id="L0-HDV-4" depart="44.00" from="right-approaching" to="right-exit" type="L0-HDV-"/>
    <trip id="L0-HDV-5" depart="55.00" from="right-approaching" to="bottom-exit" type="L0-HDV-"/>
    <trip id="L0-HDV-6" depart="66.00" from="left-long-approaching" to="left-exit" type="L0-HDV-"/>
    <trip id="L0-HDV-7" depart="77.00" from="right-approaching" to="top-exit" type="L0-HDV-"/>
    <trip id="L0-HDV-8" depart="88.00" from="top-approaching" to="right-exit" type="L0-HDV-"/>
    <trip id="L0-HDV-9" depart="99.00" from="left-long-approaching" to="left-exit" type="L0-HDV-"/>
    <trip id="L0-HDV-10" depart="110.00" from="bottom-approaching" to="bottom-exit" type="L0-HDV-"/>
    <trip id="L0-HDV-11" depart="121.00" from="left-long-approaching" to="left-exit" type="L0-HDV-"/>
    <trip id="L0-HDV-12" depart="132.00" from="left-long-approaching" to="top-exit" type="L0-HDV-"/>
    <trip id="L0-HDV-13" depart="143.00" from="right-approaching" to="right-exit" type="L0-HDV-"/>
    <trip id="L0-HDV-14" depart="154.00" from="bottom-approaching" to="bottom-exit" type="L0-HDV-"/>
    <trip id="L0-HDV-15" depart="165.00" from="left-long-approaching" to="bottom-exit" type="L0-HDV-"/>
    <trip id="L0-HDV-16" depart="176.00" from="right-approaching" to="top-exit" type="L0-HDV-"/>
    <trip id="L0-HDV-17" depart="187.00" from="right-approaching" to="bottom-exit" type="L0-HDV-"/>
    <trip id="L0-HDV-18" depart="198.00" from="top-approaching" to="top-exit" type="L0-HDV-"/>
    <trip id="L0-HDV-19" depart="209.00" from="right-approaching" to="top-exit" type="L0-HDV-"/>
    <trip id="L0-HDV-20" depart="220.00" from="top-approaching" to="top-exit" type="L0-HDV-"/>
    <trip id="L0-HDV-21" depart="231.00" from="left-long-approaching" to="top-exit" type="L0-HDV-"/>
    <trip id="L0-HDV-22" depart="242.00" from="top-approaching" to="bottom-exit" type="L0-HDV-"/>
    <trip id="L0-HDV-23" depart="253.00" from="top-approaching" to="right-exit" type="L0-HDV-"/>
    <trip id="L0-HDV-24" depart="264.00" from="left-long-approaching" to="right-exit" type="L0-HDV-"/>
    <trip id="L0-HDV-25" depart="275.00" from="left-long-approaching" to="top-exit" type="L0-HDV-"/>
    <trip id="L0-HDV-26" depart="286.00" from="preparation" to="top-exit" type="L0-HDV-"/>
    <trip id="L0-HDV-27" depart="297.00" from="left-long-approaching" to="top-exit" type="L0-HDV-"/>
    <trip id="L0-HDV-28" depart="308.00" from="top-approaching" to="left-exit" type="L0-HDV-"/>
    <trip id="L0-HDV-29" depart="319.00" from="right-approaching" to="top-exit" type="L0-HDV-"/>
    <trip id="L0-HDV-30" depart="330.00" from="right-approaching" to="left-exit" type="L0-HDV-"/>
    <trip id="L0-HDV-31" depart="341.00" from="bottom-approaching" to="left-exit" type="L0-HDV-"/>
    <trip id="L0-HDV-32" depart="352.00" from="right-approaching" to="bottom-exit" type="L0-HDV-"/>
    <trip id="L0-HDV-33" depart="363.00" from="top-approaching" to="left-exit" type="L0-HDV-"/>
    <trip id="L0-HDV-34" depart="374.00" from="top-approaching" to="left-exit" type="L0-HDV-"/>
    <trip id="L0-HDV-35" depart="385.00" from="top-approaching" to="right-exit" type="L0-HDV-"/>
    <trip id="L0-HDV-36" depart="396.00" from="remerging-lane" to="right-exit" type="L0-HDV-"/>
    <trip id="L0-HDV-37" depart="407.00" from="right-approaching" to="right-exit" type="L0-HDV-"/>
    <trip id="L0-HDV-38" depart="418.00" from="left-long-approaching" to="bottom-exit" type="L0-HDV-"/>
    <trip id="L0-HDV-39" depart="429.00" from="right-approaching" to="top-exit" type="L0-HDV-"/>
    <trip id="L0-HDV-40" depart="440.00" from="right-approaching" to="bottom-exit" type="L0-HDV-"/>
    <trip id="L0-HDV-41" depart="451.00" from="top-approaching" to="right-exit" type="L0-HDV-"/>
    <trip id="L0-HDV-42" depart="462.00" from="top-approaching" to="bottom-exit" type="L0-HDV-"/>
    <trip id="L0-HDV-43" depart="473.00" from="right-approaching" to="bottom-exit" type="L0-HDV-"/>
    <trip id="L0-HDV-44" depart="484.00" from="right-approaching" to="left-exit" type="L0-HDV-"/>
    <trip id="L0-HDV-45" depart="495.00" from="bottom-approaching" to="top-exit" type="L0-HDV-"/>
    <trip id="L0-HDV-46" depart="506.00" from="bottom-approaching" to="right-exit" type="L0-HDV-"/>
    <trip id="L0-HDV-47" depart="517.00" from="top-approaching" to="bottom-exit" type="L0-HDV-"/>
    <trip id="L0-HDV-48" depart="528.00" from="bottom-approaching" to="top-exit" type="L0-HDV-"/>
    <trip id="L0-HDV-49" depart="539.00" from="left-long-approaching" to="right-exit" type="L0-HDV-"/>
    <trip id="L0-HDV-50" depart="550.00" from="bottom-approaching" to="left-exit" type="L0-HDV-"/>
    <trip id="L0-HDV-51" depart="561.00" from="bottom-approaching" to="right-exit" type="L0-HDV-"/>
    <trip id="L0-HDV-52" depart="572.00" from="bottom-approaching" to="top-exit" type="L0-HDV-"/>
    <trip id="L0-HDV-53" depart="583.00" from="bottom-approaching" to="right-exit" type="L0-HDV-"/>
    <trip id="L0-HDV-54" depart="594.00" from="bottom-approaching" to="left-exit" type="L0-HDV-"/>
    <trip id="L0-HDV-55" depart="605.00" from="top-approaching" to="bottom-exit" type="L0-HDV-"/>
    <trip id="L0-HDV-56" depart="616.00" from="bottom-approaching" to="right-exit" type="L0-HDV-"/>
    <trip id="L0-HDV-57" depart="627.00" from="left-long-approaching" to="bottom-exit" type="L0-HDV-"/>
    <trip id="L0-HDV-58" depart="638.00" from="top-approaching" to="bottom-exit" type="L0-HDV-"/>
    <trip id="L0-HDV-59" depart="649.00" from="bottom-approaching" to="left-exit" type="L0-HDV-"/>
    <trip id="L0-HDV-60" depart="660.00" from="right-approaching" to="right-exit" type="L0-HDV-"/>
    <trip id="L0-HDV-61" depart="671.00" from="bottom-approaching" to="left-exit" type="L0-HDV-"/>
    <trip id="L0-HDV-62" depart="682.00" from="bottom-approaching" to="left-exit" type="L0-HDV-"/>
    <trip id="L0-HDV-63" depart="693.00" from="top-approaching" to="right-exit" type="L0-HDV-"/>
    <trip id="L0-HDV-64" depart="704.00" from="top-approaching" to="top-exit" type="L0-HDV-"/>
    <trip id="L0-HDV-65" depart="715.00" from="top-approaching" to="right-exit" type="L0-HDV-"/>
    <trip id="L0-HDV-66" depart="726.00" from="left-long-approaching" to="bottom-exit" type="L0-HDV-"/>
    <trip id="L0-HDV-67" depart="737.00" from="right-approaching" to="left-exit" type="L0-HDV-"/>
    <trip id="L0-HDV-68" depart="748.00" from="bottom-approaching" to="left-exit" type="L0-HDV-"/>
    <trip id="L0-HDV-69" depart="759.00" from="top-approaching" to="bottom-exit" type="L0-HDV-"/>
    <trip id="L0-HDV-70" depart="770.00" from="right-approaching" to="left-exit" type="L0-HDV-"/>
    <trip id="L0-HDV-71" depart="781.00" from="right-approaching" to="bottom-exit" type="L0-HDV-"/>
    <trip id="L0-HDV-72" depart="792.00" from="top-approaching" to="left-exit" type="L0-HDV-"/>
    <trip id="L0-HDV-73" depart="803.00" from="right-approaching" to="left-exit" type="L0-HDV-"/>
    <trip id="L0-HDV-74" depart="814.00" from="bottom-approaching" to="right-exit" type="L0-HDV-"/>
    <trip id="L0-HDV-75" depart="825.00" from="bottom-approaching" to="bottom-exit" type="L0-HDV-"/>
    <trip id="L0-HDV-76" depart="836.00" from="bottom-approaching" to="bottom-exit" type="L0-HDV-"/>
    <trip id="L0-HDV-77" depart="847.00" from="bottom-approaching" to="right-exit" type="L0-HDV-"/>
    <trip id="L0-HDV-78" depart="858.00" from="right-approaching" to="top-exit" type="L0-HDV-"/>
    <trip id="L0-HDV-79" depart="869.00" from="top-approaching" to="top-exit" type="L0-HDV-"/>
    <trip id="L0-HDV-80" depart="880.00" from="bottom-approaching" to="left-exit" type="L0-HDV-"/>
    <trip id="L0-HDV-81" depart="891.00" from="left-long-approaching" to="right-exit" type="L0-HDV-"/>
    <trip id="L0-HDV-82" depart="902.00" from="right-approaching" to="top-exit" type="L0-HDV-"/>
    <trip id="L0-HDV-83" depart="913.00" from="right-approaching" to="left-exit" type="L0-HDV-"/>
    <trip id="L0-HDV-84" depart="924.00" from="left-long-approaching" to="right-exit" type="L0-HDV-"/>
    <trip id="L0-HDV-85" depart="935.00" from="bottom-approaching" to="bottom-exit" type="L0-HDV-"/>
    <trip id="L0-HDV-86" depart="946.00" from="left-long-approaching" to="bottom-exit" type="L0-HDV-"/>
    <trip id="L0-HDV-87" depart="957.00" from="right-approaching" to="bottom-exit" type="L0-HDV-"/>
    <trip id="L0-HDV-88" depart="968.00" from="bottom-approaching" to="bottom-exit" type="L0-HDV-"/>
    <trip id="L0-HDV-89" depart="979.00" from="bottom-approaching" to="bottom-exit" type="L0-HDV-"/>
    <trip id="L0-HDV-90" depart="990.00" from="right-approaching" to="left-exit" type="L0-HDV-"/>
    <trip id="L0-HDV-91" depart="1001.00" from="left-long-approaching" to="right-exit" type="L0-HDV-"/>
    <trip id="L0-HDV-92" depart="1012.00" from="bottom-approaching" to="top-exit" type="L0-HDV-"/>
    <trip id="L0-HDV-93" depart="1023.00" from="top-approaching" to="right-exit" type="L0-HDV-"/>
    <trip id="L0-HDV-94" depart="1034.00" from="left-long-approaching" to="right-exit" type="L0-HDV-"/>
    <trip id="L0-HDV-95" depart="1045.00" from="right-approaching" to="bottom-exit" type="L0-HDV-"/>
    <trip id="L0-HDV-96" depart="1056.00" from="left-long-approaching" to="right-exit" type="L0-HDV-"/>
    <trip id="L0-HDV-97" depart="1067.00" from="bottom-approaching" to="bottom-exit" type="L0-HDV-"/>
    <trip id="L0-HDV-98" depart="1078.00" from="top-approaching" to="left-exit" type="L0-HDV-"/>
    <trip id="L0-HDV-99" depart="1089.00" from="right-approaching" to="top-exit" type="L0-HDV-"/>
    <trip id="L0-HDV-100" depart="1100.00" from="right-approaching" to="left-exit" type="L0-HDV-"/>
    <trip id="L0-HDV-101" depart="1111.00" from="top-approaching" to="left-exit" type="L0-HDV-"/>
    <trip id="L0-HDV-102" depart="1122.00" from="bottom-approaching" to="right-exit" type="L0-HDV-"/>
    <trip id="L0-HDV-103" depart="1133.00" from="bottom-approaching" to="left-exit" type="L0-HDV-"/>
    <trip id="L0-HDV-104" depart="1144.00" from="top-approaching" to="right-exit" type="L0-HDV-"/>
    <trip id="L0-HDV-105" depart="1155.00" from="bottom-approaching" to="left-exit" type="L0-HDV-"/>
    <trip id="L0-HDV-106" depart="1166.00" from="left-long-approaching" to="left-exit" type="L0-HDV-"/>
    <trip id="L0-HDV-107" depart="1177.00" from="bottom-approaching" to="right-exit" type="L0-HDV-"/>
    <trip id="L0-HDV-108" depart="1188.00" from="bottom-approaching" to="left-exit" type="L0-HDV-"/>
    <trip id="L0-HDV-109" depart="1199.00" from="left-long-approaching" to="top-exit" type="L0-HDV-"/>
    <trip id="L0-HDV-110" depart="1210.00" from="bottom-approaching" to="top-exit" type="L0-HDV-"/>
    <trip id="L0-HDV-111" depart="1221.00" from="bottom-approaching" to="right-exit" type="L0-HDV-"/>
    <trip id="L0-HDV-112" depart="1232.00" from="left-long-approaching" to="left-exit" type="L0-HDV-"/>
    <trip id="L0-HDV-113" depart="1243.00" from="top-approaching" to="left-exit" type="L0-HDV-"/>
    <trip id="L0-HDV-114" depart="1254.00" from="bottom-approaching" to="bottom-exit" type="L0-HDV-"/>
    <trip id="L0-HDV-115" depart="1265.00" from="bottom-approaching" to="top-exit" type="L0-HDV-"/>
    <trip id="L0-HDV-116" depart="1276.00" from="right-approaching" to="top-exit" type="L0-HDV-"/>
    <trip id="L0-HDV-117" depart="1287.00" from="right-approaching" to="bottom-exit" type="L0-HDV-"/>
    <trip id="L0-HDV-118" depart="1298.00" from="right-approaching" to="top-exit" type="L0-HDV-"/>
    <trip id="L0-HDV-119" depart="1309.00" from="right-approaching" to="preparation" type="L0-HDV-"/>
    <trip id="L0-HDV-120" depart="1320.00" from="left-long-approaching" to="left-exit" type="L0-HDV-"/>
    <trip id="L0-HDV-121" depart="1331.00" from="top-approaching" to="left-exit" type="L0-HDV-"/>
    <trip id="L0-HDV-122" depart="1342.00" from="right-approaching" to="left-exit" type="L0-HDV-"/>
    <trip id="L0-HDV-123" depart="1353.00" from="top-approaching" to="top-exit" type="L0-HDV-"/>
    <trip id="L0-HDV-124" depart="1364.00" from="top-approaching" to="top-exit" type="L0-HDV-"/>
    <trip id="L0-HDV-125" depart="1375.00" from="left-long-approaching" to="bottom-exit" type="L0-HDV-"/>
    <trip id="L0-HDV-126" depart="1386.00" from="left-long-approaching" to="left-exit" type="L0-HDV-"/>
    <trip id="L0-HDV-127" depart="1397.00" from="left-long-approaching" to="right-exit" type="L0-HDV-"/>
    <trip id="L0-HDV-128" depart="1408.00" from="top-approaching" to="right-exit" type="L0-HDV-"/>
    <trip id="L0-HDV-129" depart="1419.00" from="top-approaching" to="bottom-exit" type="L0-HDV-"/>
    <trip id="L0-HDV-130" depart="1430.00" from="left-long-approaching" to="top-exit" type="L0-HDV-"/>
    <trip id="L0-HDV-131" depart="1441.00" from="bottom-approaching" to="left-exit" type="L0-HDV-"/>
    <trip id="L0-HDV-132" depart="1452.00" from="bottom-approaching" to="bottom-exit" type="L0-HDV-"/>
    <trip id="L0-HDV-133" depart="1463.00" from="top-approaching" to="top-exit" type="L0-HDV-"/>
    <trip id="L0-HDV-134" depart="1474.00" from="right-approaching" to="bottom-exit" type="L0-HDV-"/>
    <trip id="L0-HDV-135" depart="1485.00" from="left-long-approaching" to="bottom-exit" type="L0-HDV-"/>
    <trip id="L0-HDV-136" depart="1496.00" from="right-approaching" to="right-exit" type="L0-HDV-"/>
    <trip id="L0-HDV-137" depart="1507.00" from="left-long-approaching" to="right-exit" type="L0-HDV-"/>
    <trip id="L0-HDV-138" depart="1518.00" from="bottom-approaching" to="right-exit" type="L0-HDV-"/>
    <trip id="L0-HDV-139" depart="1529.00" from="top-approaching" to="top-exit" type="L0-HDV-"/>
    <trip id="L0-HDV-140" depart="1540.00" from="bottom-approaching" to="right-exit" type="L0-HDV-"/>
    <trip id="L0-HDV-141" depart="1551.00" from="right-approaching" to="left-exit" type="L0-HDV-"/>
    <trip id="L0-HDV-142" depart="1562.00" from="top-approaching" to="left-exit" type="L0-HDV-"/>
    <trip id="L0-HDV-143" depart="1573.00" from="right-approaching" to="left-exit" type="L0-HDV-"/>
    <trip id="L0-HDV-144" depart="1584.00" from="top-approaching" to="top-exit" type="L0-HDV-"/>
    <trip id="L0-HDV-145" depart="1595.00" from="right-approaching" to="bottom-exit" type="L0-HDV-"/>
    <trip id="L0-HDV-146" depart="1606.00" from="left-long-approaching" to="bottom-exit" type="L0-HDV-"/>
    <trip id="L0-HDV-147" depart="1617.00" from="right-approaching" to="top-exit" type="L0-HDV-"/>
    <trip id="L0-HDV-148" depart="1628.00" from="bottom-approaching" to="right-exit" type="L0-HDV-"/>
    <trip id="L0-HDV-149" depart="1639.00" from="left-long-approaching" to="left-exit" type="L0-HDV-"/>
    <trip id="L0-HDV-150" depart="1650.00" from="right-approaching" to="top-exit" type="L0-HDV-"/>
    <trip id="L0-HDV-151" depart="1661.00" from="right-approaching" to="left-exit" type="L0-HDV-"/>
    <trip id="L0-HDV-152" depart="1672.00" from="top-approaching" to="left-exit" type="L0-HDV-"/>
    <trip id="L0-HDV-153" depart="1683.00" from="right-approaching" to="right-exit" type="L0-HDV-"/>
    <trip id="L0-HDV-154" depart="1694.00" from="top-approaching" to="top-exit" type="L0-HDV-"/>
    <trip id="L0-HDV-155" depart="1705.00" from="bottom-approaching" to="right-exit" type="L0-HDV-"/>
    <trip id="L0-HDV-156" depart="1716.00" from="left-long-approaching" to="right-exit" type="L0-HDV-"/>
    <trip id="L0-HDV-157" depart="1727.00" from="top-approaching" to="right-exit" type="L0-HDV-"/>
    <trip id="L0-HDV-158" depart="1738.00" from="bottom-approaching" to="left-exit" type="L0-HDV-"/>
    <trip id="L0-HDV-159" depart="1749.00" from="right-approaching" to="top-exit" type="L0-HDV-"/>
    <trip id="L0-HDV-160" depart="1760.00" from="right-approaching" to="top-exit" type="L0-HDV-"/>
    <trip id="L0-HDV-161" depart="1771.00" from="bottom-approaching" to="top-exit" type="L0-HDV-"/>
    <trip id="L0-HDV-162" depart="1782.00" from="right-approaching" to="right-exit" type="L0-HDV-"/>
    <trip id="L0-HDV-163" depart="1793.00" from="top-approaching" to="top-exit" type="L0-HDV-"/>
    <trip id="L0-HDV-164" depart="1804.00" from="bottom-approaching" to="top-exit" type="L0-HDV-"/>
    <trip id="L0-HDV-165" depart="1815.00" from="top-approaching" to="bottom-exit" type="L0-HDV-"/>
    <trip id="L0-HDV-166" depart="1826.00" from="right-approaching" to="right-exit" type="L0-HDV-"/>
    <trip id="L0-HDV-167" depart="1837.00" from="bottom-approaching" to="top-exit" type="L0-HDV-"/>
    <trip id="L0-HDV-168" depart="1848.00" from="bottom-approaching" to="right-exit" type="L0-HDV-"/>
    <trip id="L0-HDV-169" depart="1859.00" from="left-long-approaching" to="left-exit" type="L0-HDV-"/>
    <trip id="L0-HDV-170" depart="1870.00" from="right-approaching" to="left-exit" type="L0-HDV-"/>
    <trip id="L0-HDV-171" depart="1881.00" from="bottom-approaching" to="top-exit" type="L0-HDV-"/>
    <trip id="L0-HDV-172" depart="1892.00" from="bottom-approaching" to="bottom-exit" type="L0-HDV-"/>
    <trip id="L0-HDV-173" depart="1903.00" from="left-long-approaching" to="top-exit" type="L0-HDV-"/>
    <trip id="L0-HDV-174" depart="1914.00" from="right-approaching" to="top-exit" type="L0-HDV-"/>
    <trip id="L0-HDV-175" depart="1925.00" from="left-long-approaching" to="right-exit" type="L0-HDV-"/>
    <trip id="L0-HDV-176" depart="1936.00" from="left-long-approaching" to="left-exit" type="L0-HDV-"/>
    <trip id="L0-HDV-177" depart="1947.00" from="preparation" to="bottom-exit" type="L0-HDV-"/>
    <trip id="L0-HDV-178" depart="1958.00" from="bottom-approaching" to="top-exit" type="L0-HDV-"/>
    <trip id="L0-HDV-179" depart="1969.00" from="bottom-approaching" to="right-exit" type="L0-HDV-"/>
    <trip id="L0-HDV-180" depart="1980.00" from="top-approaching" to="left-exit" type="L0-HDV-"/>
    <trip id="L0-HDV-181" depart="1991.00" from="right-approaching" to="top-exit" type="L0-HDV-"/>
    <trip id="L0-HDV-182" depart="2002.00" from="top-approaching" to="bottom-exit" type="L0-HDV-"/>
    <trip id="L0-HDV-183" depart="2013.00" from="bottom-approaching" to="left-exit" type="L0-HDV-"/>
    <trip id="L0-HDV-184" depart="2024.00" from="left-long-approaching" to="left-exit" type="L0-HDV-"/>
    <trip id="L0-HDV-185" depart="2035.00" from="bottom-approaching" to="right-exit" type="L0-HDV-"/>
    <trip id="L0-HDV-186" depart="2046.00" from="top-approaching" to="left-exit" type="L0-HDV-"/>
    <trip id="L0-HDV-187" depart="2057.00" from="right-approaching" to="left-exit" type="L0-HDV-"/>
    <trip id="L0-HDV-188" depart="2068.00" from="left-long-approaching" to="top-exit" type="L0-HDV-"/>
    <trip id="L0-HDV-189" depart="2079.00" from="left-long-approaching" to="right-exit" type="L0-HDV-"/>
    <trip id="L0-HDV-190" depart="2090.00" from="left-long-approaching" to="right-exit" type="L0-HDV-"/>
    <trip id="L0-HDV-191" depart="2101.00" from="top-approaching" to="bottom-exit" type="L0-HDV-"/>
    <trip id="L0-HDV-192" depart="2112.00" from="top-approaching" to="left-exit" type="L0-HDV-"/>
    <trip id="L0-HDV-193" depart="2123.00" from="right-approaching" to="top-exit" type="L0-HDV-"/>
    <trip id="L0-HDV-194" depart="2134.00" from="right-approaching" to="left-exit" type="L0-HDV-"/>
    <trip id="L0-HDV-195" depart="2145.00" from="top-approaching" to="bottom-exit" type="L0-HDV-"/>
    <trip id="L0-HDV-196" depart="2156.00" from="right-approaching" to="left-exit" type="L0-HDV-"/>
    <trip id="L0-HDV-197" depart="2167.00" from="right-approaching" to="top-exit" type="L0-HDV-"/>
    <trip id="L0-HDV-198" depart="2178.00" from="top-approaching" to="right-exit" type="L0-HDV-"/>
    <trip id="L0-HDV-199" depart="2189.00" from="left-long-approaching" to="bottom-exit" type="L0-HDV-"/>
    <trip id="L0-HDV-200" depart="2200.00" from="left-long-approaching" to="bottom-exit" type="L0-HDV-"/>
    <trip id="L0-HDV-201" depart="2211.00" from="left-long-approaching" to="top-exit" type="L0-HDV-"/>
    <trip id="L0-HDV-202" depart="2222.00" from="bottom-approaching" to="top-exit" type="L0-HDV-"/>
    <trip id="L0-HDV-203" depart="2233.00" from="left-long-approaching" to="left-exit" type="L0-HDV-"/>
    <trip id="L0-HDV-204" depart="2244.00" from="left-long-approaching" to="bottom-exit" type="L0-HDV-"/>
    <trip id="L0-HDV-205" depart="2255.00" from="left-long-approaching" to="bottom-exit" type="L0-HDV-"/>
    <trip id="L0-HDV-206" depart="2266.00" from="left-long-approaching" to="left-exit" type="L0-HDV-"/>
    <trip id="L0-HDV-207" depart="2277.00" from="top-approaching" to="top-exit" type="L0-HDV-"/>
    <trip id="L0-HDV-208" depart="2288.00" from="left-long-approaching" to="right-exit" type="L0-HDV-"/>
    <trip id="L0-HDV-209" depart="2299.00" from="top-approaching" to="left-exit" type="L0-HDV-"/>
    <trip id="L0-HDV-210" depart="2310.00" from="bottom-approaching" to="bottom-exit" type="L0-HDV-"/>
    <trip id="L0-HDV-211" depart="2321.00" from="bottom-approaching" to="right-exit" type="L0-HDV-"/>
    <trip id="L0-HDV-212" depart="2332.00" from="left-long-approaching" to="left-exit" type="L0-HDV-"/>
    <trip id="L0-HDV-213" depart="2343.00" from="top-approaching" to="bottom-exit" type="L0-HDV-"/>
    <trip id="L0-HDV-214" depart="2354.00" from="top-approaching" to="right-exit" type="L0-HDV-"/>
    <trip id="L0-HDV-215" depart="2365.00" from="left-long-approaching" to="top-exit" type="L0-HDV-"/>
    <trip id="L0-HDV-216" depart="2376.00" from="left-long-approaching" to="top-exit" type="L0-HDV-"/>
    <trip id="L0-HDV-217" depart="2387.00" from="top-approaching" to="preparation" type="L0-HDV-"/>
    <trip id="L0-HDV-218" depart="2398.00" from="right-approaching" to="top-exit" type="L0-HDV-"/>
    <trip id="L0-HDV-219" depart="2409.00" from="right-approaching" to="right-exit" type="L0-HDV-"/>
    <trip id="L0-HDV-220" depart="2420.00" from="top-approaching" to="top-exit" type="L0-HDV-"/>
    <trip id="L0-HDV-221" depart="2431.00" from="top-approaching" to="top-exit" type="L0-HDV-"/>
    <trip id="L0-HDV-222" depart="2442.00" from="left-long-approaching" to="right-exit" type="L0-HDV-"/>
    <trip id="L0-HDV-223" depart="2453.00" from="right-approaching" to="left-exit" type="L0-HDV-"/>
    <trip id="L0-HDV-224" depart="2464.00" from="left-long-approaching" to="bottom-exit" type="L0-HDV-"/>
    <trip id="L0-HDV-225" depart="2475.00" from="top-approaching" to="left-exit" type="L0-HDV-"/>
    <trip id="L0-HDV-226" depart="2486.00" from="left-long-approaching" to="top-exit" type="L0-HDV-"/>
    <trip id="L0-HDV-227" depart="2497.00" from="bottom-approaching" to="top-exit" type="L0-HDV-"/>
    <trip id="L0-HDV-228" depart="2508.00" from="bottom-approaching" to="bottom-exit" type="L0-HDV-"/>
    <trip id="L0-HDV-229" depart="2519.00" from="left-long-approaching" to="left-exit" type="L0-HDV-"/>
    <trip id="L0-HDV-230" depart="2530.00" from="top-approaching" to="top-exit" type="L0-HDV-"/>
    <trip id="L0-HDV-231" depart="2541.00" from="top-approaching" to="left-exit" type="L0-HDV-"/>
    <trip id="L0-HDV-232" depart="2552.00" from="right-approaching" to="bottom-exit" type="L0-HDV-"/>
    <trip id="L0-HDV-233" depart="2563.00" from="top-approaching" to="left-exit" type="L0-HDV-"/>
    <trip id="L0-HDV-234" depart="2574.00" from="left-long-approaching" to="right-exit" type="L0-HDV-"/>
    <trip id="L0-HDV-235" depart="2585.00" from="bottom-approaching" to="left-exit" type="L0-HDV-"/>
    <trip id="L0-HDV-236" depart="2596.00" from="top-approaching" to="bottom-exit" type="L0-HDV-"/>
    <trip id="L0-HDV-237" depart="2607.00" from="bottom-approaching" to="bottom-exit" type="L0-HDV-"/>
    <trip id="L0-HDV-238" depart="2618.00" from="left-long-approaching" to="left-exit" type="L0-HDV-"/>
    <trip id="L0-HDV-239" depart="2629.00" from="left-long-approaching" to="left-exit" type="L0-HDV-"/>
    <trip id="L0-HDV-240" depart="2640.00" from="bottom-approaching" to="bottom-exit" type="L0-HDV-"/>
    <trip id="L0-HDV-241" depart="2651.00" from="right-approaching" to="left-exit" type="L0-HDV-"/>
    <trip id="L0-HDV-242" depart="2662.00" from="left-long-approaching" to="top-exit" type="L0-HDV-"/>
    <trip id="L0-HDV-243" depart="2673.00" from="bottom-approaching" to="bottom-exit" type="L0-HDV-"/>
    <trip id="L0-HDV-244" depart="2684.00" from="top-approaching" to="left-exit" type="L0-HDV-"/>
    <trip id="L0-HDV-245" depart="2695.00" from="top-approaching" to="bottom-exit" type="L0-HDV-"/>
    <trip id="L0-HDV-246" depart="2706.00" from="right-approaching" to="top-exit" type="L0-HDV-"/>
    <trip id="L0-HDV-247" depart="2717.00" from="left-long-approaching" to="top-exit" type="L0-HDV-"/>
    <trip id="L0-HDV-248" depart="2728.00" from="right-approaching" to="left-exit" type="L0-HDV-"/>
    <trip id="L0-HDV-249" depart="2739.00" from="top-approaching" to="left-exit" type="L0-HDV-"/>
    <trip id="L0-HDV-250" depart="2750.00" from="left-long-approaching" to="right-exit" type="L0-HDV-"/>
    <trip id="L0-HDV-251" depart="2761.00" from="left-long-approaching" to="top-exit" type="L0-HDV-"/>
    <trip id="L0-HDV-252" depart="2772.00" from="right-approaching" to="right-exit" type="L0-HDV-"/>
    <trip id="L0-HDV-253" depart="2783.00" from="right-approaching" to="top-exit" type="L0-HDV-"/>
    <trip id="L0-HDV-254" depart="2794.00" from="top-approaching" to="top-exit" type="L0-HDV-"/>
    <trip id="L0-HDV-255" depart="2805.00" from="left-long-approaching" to="left-exit" type="L0-HDV-"/>
    <trip id="L0-HDV-256" depart="2816.00" from="right-approaching" to="bottom-exit" type="L0-HDV-"/>
    <trip id="L0-HDV-257" depart="2827.00" from="bottom-approaching" to="top-exit" type="L0-HDV-"/>
    <trip id="L0-HDV-258" depart="2838.00" from="bottom-approaching" to="top-exit" type="L0-HDV-"/>
    <trip id="L0-HDV-259" depart="2849.00" from="right-approaching" to="top-exit" type="L0-HDV-"/>
    <trip id="L0-HDV-260" depart="2860.00" from="bottom-approaching" to="left-exit" type="L0-HDV-"/>
    <trip id="L0-HDV-261" depart="2871.00" from="top-approaching" to="bottom-exit" type="L0-HDV-"/>
    <trip id="L0-HDV-262" depart="2882.00" from="bottom-approaching" to="left-exit" type="L0-HDV-"/>
    <trip id="L0-HDV-263" depart="2893.00" from="bottom-approaching" to="bottom-exit" type="L0-HDV-"/>
    <trip id="L0-HDV-264" depart="2904.00" from="right-approaching" to="bottom-exit" type="L0-HDV-"/>
    <trip id="L0-HDV-265" depart="2915.00" from="top-approaching" to="right-exit" type="L0-HDV-"/>
    <trip id="L0-HDV-266" depart="2926.00" from="bottom-approaching" to="top-exit" type="L0-HDV-"/>
    <trip id="L0-HDV-267" depart="2937.00" from="bottom-approaching" to="left-exit" type="L0-HDV-"/>
    <trip id="L0-HDV-268" depart="2948.00" from="right-approaching" to="bottom-exit" type="L0-HDV-"/>
    <trip id="L0-HDV-269" depart="2959.00" from="preparation" to="bottom-exit" type="L0-HDV-"/>
    <trip id="L0-HDV-270" depart="2970.00" from="bottom-approaching" to="top-exit" type="L0-HDV-"/>
    <trip id="L0-HDV-271" depart="2981.00" from="top-approaching" to="right-exit" type="L0-HDV-"/>
    <trip id="L0-HDV-272" depart="2992.00" from="right-approaching" to="top-exit" type="L0-HDV-"/>
    <trip id="L0-HDV-273" depart="3003.00" from="bottom-approaching" to="left-exit" type="L0-HDV-"/>
    <trip id="L0-HDV-274" depart="3014.00" from="bottom-approaching" to="bottom-exit" type="L0-HDV-"/>
    <trip id="L0-HDV-275" depart="3025.00" from="bottom-approaching" to="bottom-exit" type="L0-HDV-"/>
    <trip id="L0-HDV-276" depart="3036.00" from="bottom-approaching" to="bottom-exit" type="L0-HDV-"/>
    <trip id="L0-HDV-277" depart="3047.00" from="left-long-approaching" to="right-exit" type="L0-HDV-"/>
    <trip id="L0-HDV-278" depart="3058.00" from="top-approaching" to="top-exit" type="L0-HDV-"/>
    <trip id="L0-HDV-279" depart="3069.00" from="right-approaching" to="right-exit" type="L0-HDV-"/>
    <trip id="L0-HDV-280" depart="3080.00" from="top-approaching" to="bottom-exit" type="L0-HDV-"/>
    <trip id="L0-HDV-281" depart="3091.00" from="bottom-approaching" to="top-exit" type="L0-HDV-"/>
    <trip id="L0-HDV-282" depart="3102.00" from="right-approaching" to="bottom-exit" type="L0-HDV-"/>
    <trip id="L0-HDV-283" depart="3113.00" from="left-long-approaching" to="left-exit" type="L0-HDV-"/>
    <trip id="L0-HDV-284" depart="3124.00" from="left-long-approaching" to="left-exit" type="L0-HDV-"/>
    <trip id="L0-HDV-285" depart="3135.00" from="left-long-approaching" to="top-exit" type="L0-HDV-"/>
    <trip id="L0-HDV-286" depart="3146.00" from="top-approaching" to="right-exit" type="L0-HDV-"/>
    <trip id="L0-HDV-287" depart="3157.00" from="left-long-approaching" to="left-exit" type="L0-HDV-"/>
    <trip id="L0-HDV-288" depart="3168.00" from="top-approaching" to="top-exit" type="L0-HDV-"/>
    <trip id="L0-HDV-289" depart="3179.00" from="bottom-approaching" to="right-exit" type="L0-HDV-"/>
    <trip id="L0-HDV-290" depart="3190.00" from="right-approaching" to="right-exit" type="L0-HDV-"/>
    <trip id="L0-HDV-291" depart="3201.00" from="bottom-approaching" to="right-exit" type="L0-HDV-"/>
    <trip id="L0-HDV-292" depart="3212.00" from="bottom-approaching" to="bottom-exit" type="L0-HDV-"/>