<?xml version="1.0" encoding="UTF-8"?>
<!-- generated on 2021-04-09 17:32:22.522407 by $Id$ v1_8_0+0044-4820708f3d
  options: -n Roadworks/RoadworksIntersection.net.xml <doubleminus>fringe-factor 40 -r Roadworks/BaselinePenetration3/Route-Files/L0-HDV-Route.rou.xml <doubleminus>trip-attributes=type="L0-HDV-" -l <doubleminus>prefix L0-HDV- <doubleminus>seed 2 -p 18
-->
<routes xmlns:xsi="http://www.w3.org/2001/XMLSchema-instance" xsi:noNamespaceSchemaLocation="http://sumo.dlr.de/xsd/routes_file.xsd">
    <trip id="L0-HDV-0" depart="0.00" from="top-approaching" to="top-exit" type="L0-HDV-"/>
    <trip id="L0-HDV-1" depart="18.00" from="bottom-approaching" to="bottom-exit" type="L0-HDV-"/>
    <trip id="L0-HDV-2" depart="36.00" from="top-approaching" to="right-exit" type="L0-HDV-"/>
    <trip id="L0-HDV-3" depart="54.00" from="right-approaching" to="left-exit" type="L0-HDV-"/>
    <trip id="L0-HDV-4" depart="72.00" from="right-approaching" to="right-exit" type="L0-HDV-"/>
    <trip id="L0-HDV-5" depart="90.00" from="right-approaching" to="bottom-exit" type="L0-HDV-"/>
    <trip id="L0-HDV-6" depart="108.00" from="left-long-approaching" to="left-exit" type="L0-HDV-"/>
    <trip id="L0-HDV-7" depart="126.00" from="right-approaching" to="top-exit" type="L0-HDV-"/>
    <trip id="L0-HDV-8" depart="144.00" from="top-approaching" to="right-exit" type="L0-HDV-"/>
    <trip id="L0-HDV-9" depart="162.00" from="left-long-approaching" to="left-exit" type="L0-HDV-"/>
    <trip id="L0-HDV-10" depart="180.00" from="bottom-approaching" to="bottom-exit" type="L0-HDV-"/>
    <trip id="L0-HDV-11" depart="198.00" from="left-long-approaching" to="left-exit" type="L0-HDV-"/>
    <trip id="L0-HDV-12" depart="216.00" from="left-long-approaching" to="top-exit" type="L0-HDV-"/>
    <trip id="L0-HDV-13" depart="234.00" from="right-approaching" to="right-exit" type="L0-HDV-"/>
    <trip id="L0-HDV-14" depart="252.00" from="bottom-approaching" to="bottom-exit" type="L0-HDV-"/>
    <trip id="L0-HDV-15" depart="270.00" from="left-long-approaching" to="bottom-exit" type="L0-HDV-"/>
    <trip id="L0-HDV-16" depart="288.00" from="right-approaching" to="top-exit" type="L0-HDV-"/>
    <trip id="L0-HDV-17" depart="306.00" from="right-approaching" to="bottom-exit" type="L0-HDV-"/>
    <trip id="L0-HDV-18" depart="324.00" from="top-approaching" to="top-exit" type="L0-HDV-"/>
    <trip id="L0-HDV-19" depart="342.00" from="right-approaching" to="top-exit" type="L0-HDV-"/>
    <trip id="L0-HDV-20" depart="360.00" from="top-approaching" to="top-exit" type="L0-HDV-"/>
    <trip id="L0-HDV-21" depart="378.00" from="left-long-approaching" to="top-exit" type="L0-HDV-"/>
    <trip id="L0-HDV-22" depart="396.00" from="top-approaching" to="bottom-exit" type="L0-HDV-"/>
    <trip id="L0-HDV-23" depart="414.00" from="top-approaching" to="right-exit" type="L0-HDV-"/>
    <trip id="L0-HDV-24" depart="432.00" from="left-long-approaching" to="right-exit" type="L0-HDV-"/>
    <trip id="L0-HDV-25" depart="450.00" from="left-long-approaching" to="top-exit" type="L0-HDV-"/>
    <trip id="L0-HDV-26" depart="468.00" from="preparation" to="top-exit" type="L0-HDV-"/>
    <trip id="L0-HDV-27" depart="486.00" from="left-long-approaching" to="top-exit" type="L0-HDV-"/>
    <trip id="L0-HDV-28" depart="504.00" from="top-approaching" to="left-exit" type="L0-HDV-"/>
    <trip id="L0-HDV-29" depart="522.00" from="right-approaching" to="top-exit" type="L0-HDV-"/>
    <trip id="L0-HDV-30" depart="540.00" from="right-approaching" to="left-exit" type="L0-HDV-"/>
    <trip id="L0-HDV-31" depart="558.00" from="bottom-approaching" to="left-exit" type="L0-HDV-"/>
    <trip id="L0-HDV-32" depart="576.00" from="right-approaching" to="bottom-exit" type="L0-HDV-"/>
    <trip id="L0-HDV-33" depart="594.00" from="top-approaching" to="left-exit" type="L0-HDV-"/>
    <trip id="L0-HDV-34" depart="612.00" from="top-approaching" to="left-exit" type="L0-HDV-"/>
    <trip id="L0-HDV-35" depart="630.00" from="top-approaching" to="right-exit" type="L0-HDV-"/>
    <trip id="L0-HDV-36" depart="648.00" from="remerging-lane" to="right-exit" type="L0-HDV-"/>
    <trip id="L0-HDV-37" depart="666.00" from="right-approaching" to="right-exit" type="L0-HDV-"/>
    <trip id="L0-HDV-38" depart="684.00" from="left-long-approaching" to="bottom-exit" type="L0-HDV-"/>
    <trip id="L0-HDV-39" depart="702.00" from="right-approaching" to="top-exit" type="L0-HDV-"/>
    <trip id="L0-HDV-40" depart="720.00" from="right-approaching" to="bottom-exit" type="L0-HDV-"/>
    <trip id="L0-HDV-41" depart="738.00" from="top-approaching" to="right-exit" type="L0-HDV-"/>
    <trip id="L0-HDV-42" depart="756.00" from="top-approaching" to="bottom-exit" type="L0-HDV-"/>
    <trip id="L0-HDV-43" depart="774.00" from="right-approaching" to="bottom-exit" type="L0-HDV-"/>
    <trip id="L0-HDV-44" depart="792.00" from="right-approaching" to="left-exit" type="L0-HDV-"/>
    <trip id="L0-HDV-45" depart="810.00" from="bottom-approaching" to="top-exit" type="L0-HDV-"/>
    <trip id="L0-HDV-46" depart="828.00" from="bottom-approaching" to="right-exit" type="L0-HDV-"/>
    <trip id="L0-HDV-47" depart="846.00" from="top-approaching" to="bottom-exit" type="L0-HDV-"/>
    <trip id="L0-HDV-48" depart="864.00" from="bottom-approaching" to="top-exit" type="L0-HDV-"/>
    <trip id="L0-HDV-49" depart="882.00" from="left-long-approaching" to="right-exit" type="L0-HDV-"/>
    <trip id="L0-HDV-50" depart="900.00" from="bottom-approaching" to="left-exit" type="L0-HDV-"/>
    <trip id="L0-HDV-51" depart="918.00" from="bottom-approaching" to="right-exit" type="L0-HDV-"/>
    <trip id="L0-HDV-52" depart="936.00" from="bottom-approaching" to="top-exit" type="L0-HDV-"/>
    <trip id="L0-HDV-53" depart="954.00" from="bottom-approaching" to="right-exit" type="L0-HDV-"/>
    <trip id="L0-HDV-54" depart="972.00" from="bottom-approaching" to="left-exit" type="L0-HDV-"/>
    <trip id="L0-HDV-55" depart="990.00" from="top-approaching" to="bottom-exit" type="L0-HDV-"/>
    <trip id="L0-HDV-56" depart="1008.00" from="bottom-approaching" to="right-exit" type="L0-HDV-"/>
    <trip id="L0-HDV-57" depart="1026.00" from="left-long-approaching" to="bottom-exit" type="L0-HDV-"/>
    <trip id="L0-HDV-58" depart="1044.00" from="top-approaching" to="bottom-exit" type="L0-HDV-"/>
    <trip id="L0-HDV-59" depart="1062.00" from="bottom-approaching" to="left-exit" type="L0-HDV-"/>
    <trip id="L0-HDV-60" depart="1080.00" from="right-approaching" to="right-exit" type="L0-HDV-"/>
    <trip id="L0-HDV-61" depart="1098.00" from="bottom-approaching" to="left-exit" type="L0-HDV-"/>
    <trip id="L0-HDV-62" depart="1116.00" from="bottom-approaching" to="left-exit" type="L0-HDV-"/>
    <trip id="L0-HDV-63" depart="1134.00" from="top-approaching" to="right-exit" type="L0-HDV-"/>
    <trip id="L0-HDV-64" depart="1152.00" from="top-approaching" to="top-exit" type="L0-HDV-"/>
    <trip id="L0-HDV-65" depart="1170.00" from="top-approaching" to="right-exit" type="L0-HDV-"/>
    <trip id="L0-HDV-66" depart="1188.00" from="left-long-approaching" to="bottom-exit" type="L0-HDV-"/>
    <trip id="L0-HDV-67" depart="1206.00" from="right-approaching" to="left-exit" type="L0-HDV-"/>
    <trip id="L0-HDV-68" depart="1224.00" from="bottom-approaching" to="left-exit" type="L0-HDV-"/>
    <trip id="L0-HDV-69" depart="1242.00" from="top-approaching" to="bottom-exit" type="L0-HDV-"/>
    <trip id="L0-HDV-70" depart="1260.00" from="right-approaching" to="left-exit" type="L0-HDV-"/>
    <trip id="L0-HDV-71" depart="1278.00" from="right-approaching" to="bottom-exit" type="L0-HDV-"/>
    <trip id="L0-HDV-72" depart="1296.00" from="top-approaching" to="left-exit" type="L0-HDV-"/>
    <trip id="L0-HDV-73" depart="1314.00" from="right-approaching" to="left-exit" type="L0-HDV-"/>
    <trip id="L0-HDV-74" depart="1332.00" from="bottom-approaching" to="right-exit" type="L0-HDV-"/>
    <trip id="L0-HDV-75" depart="1350.00" from="bottom-approaching" to="bottom-exit" type="L0-HDV-"/>
    <trip id="L0-HDV-76" depart="1368.00" from="bottom-approaching" to="bottom-exit" type="L0-HDV-"/>
    <trip id="L0-HDV-77" depart="1386.00" from="bottom-approaching" to="right-exit" type="L0-HDV-"/>
    <trip id="L0-HDV-78" depart="1404.00" from="right-approaching" to="top-exit" type="L0-HDV-"/>
    <trip id="L0-HDV-79" depart="1422.00" from="top-approaching" to="top-exit" type="L0-HDV-"/>
    <trip id="L0-HDV-80" depart="1440.00" from="bottom-approaching" to="left-exit" type="L0-HDV-"/>
    <trip id="L0-HDV-81" depart="1458.00" from="left-long-approaching" to="right-exit" type="L0-HDV-"/>
    <trip id="L0-HDV-82" depart="1476.00" from="right-approaching" to="top-exit" type="L0-HDV-"/>
    <trip id="L0-HDV-83" depart="1494.00" from="right-approaching" to="left-exit" type="L0-HDV-"/>
    <trip id="L0-HDV-84" depart="1512.00" from="left-long-approaching" to="right-exit" type="L0-HDV-"/>
    <trip id="L0-HDV-85" depart="1530.00" from="bottom-approaching" to="bottom-exit" type="L0-HDV-"/>
    <trip id="L0-HDV-86" depart="1548.00" from="left-long-approaching" to="bottom-exit" type="L0-HDV-"/>
    <trip id="L0-HDV-87" depart="1566.00" from="right-approaching" to="bottom-exit" type="L0-HDV-"/>
    <trip id="L0-HDV-88" depart="1584.00" from="bottom-approaching" to="bottom-exit" type="L0-HDV-"/>
    <trip id="L0-HDV-89" depart="1602.00" from="bottom-approaching" to="bottom-exit" type="L0-HDV-"/>
    <trip id="L0-HDV-90" depart="1620.00" from="right-approaching" to="left-exit" type="L0-HDV-"/>
    <trip id="L0-HDV-91" depart="1638.00" from="left-long-approaching" to="right-exit" type="L0-HDV-"/>
    <trip id="L0-HDV-92" depart="1656.00" from="bottom-approaching" to="top-exit" type="L0-HDV-"/>
    <trip id="L0-HDV-93" depart="1674.00" from="top-approaching" to="right-exit" type="L0-HDV-"/>
    <trip id="L0-HDV-94" depart="1692.00" from="left-long-approaching" to="right-exit" type="L0-HDV-"/>
    <trip id="L0-HDV-95" depart="1710.00" from="right-approaching" to="bottom-exit" type="L0-HDV-"/>
    <trip id="L0-HDV-96" depart="1728.00" from="left-long-approaching" to="right-exit" type="L0-HDV-"/>
    <trip id="L0-HDV-97" depart="1746.00" from="bottom-approaching" to="bottom-exit" type="L0-HDV-"/>
    <trip id="L0-HDV-98" depart="1764.00" from="top-approaching" to="left-exit" type="L0-HDV-"/>
    <trip id="L0-HDV-99" depart="1782.00" from="right-approaching" to="top-exit" type="L0-HDV-"/>
    <trip id="L0-HDV-100" depart="1800.00" from="right-approaching" to="left-exit" type="L0-HDV-"/>
    <trip id="L0-HDV-101" depart="1818.00" from="top-approaching" to="left-exit" type="L0-HDV-"/>
    <trip id="L0-HDV-102" depart="1836.00" from="bottom-approaching" to="right-exit" type="L0-HDV-"/>
    <trip id="L0-HDV-103" depart="1854.00" from="bottom-approaching" to="left-exit" type="L0-HDV-"/>
    <trip id="L0-HDV-104" depart="1872.00" from="top-approaching" to="right-exit" type="L0-HDV-"/>
    <trip id="L0-HDV-105" depart="1890.00" from="bottom-approaching" to="left-exit" type="L0-HDV-"/>
    <trip id="L0-HDV-106" depart="1908.00" from="left-long-approaching" to="left-exit" type="L0-HDV-"/>
    <trip id="L0-HDV-107" depart="1926.00" from="bottom-approaching" to="right-exit" type="L0-HDV-"/>
    <trip id="L0-HDV-108" depart="1944.00" from="bottom-approaching" to="left-exit" type="L0-HDV-"/>
    <trip id="L0-HDV-109" depart="1962.00" from="left-long-approaching" to="top-exit" type="L0-HDV-"/>
    <trip id="L0-HDV-110" depart="1980.00" from="bottom-approaching" to="top-exit" type="L0-HDV-"/>
    <trip id="L0-HDV-111" depart="1998.00" from="bottom-approaching" to="right-exit" type="L0-HDV-"/>
    <trip id="L0-HDV-112" depart="2016.00" from="left-long-approaching" to="left-exit" type="L0-HDV-"/>
    <trip id="L0-HDV-113" depart="2034.00" from="top-approaching" to="left-exit" type="L0-HDV-"/>
    <trip id="L0-HDV-114" depart="2052.00" from="bottom-approaching" to="bottom-exit" type="L0-HDV-"/>
    <trip id="L0-HDV-115" depart="2070.00" from="bottom-approaching" to="top-exit" type="L0-HDV-"/>
    <trip id="L0-HDV-116" depart="2088.00" from="right-approaching" to="top-exit" type="L0-HDV-"/>
    <trip id="L0-HDV-117" depart="2106.00" from="right-approaching" to="bottom-exit" type="L0-HDV-"/>
    <trip id="L0-HDV-118" depart="2124.00" from="right-approaching" to="top-exit" type="L0-HDV-"/>
    <trip id="L0-HDV-119" depart="2142.00" from="right-approaching" to="preparation" type="L0-HDV-"/>
    <trip id="L0-HDV-120" depart="2160.00" from="left-long-approaching" to="left-exit" type="L0-HDV-"/>
    <trip id="L0-HDV-121" depart="2178.00" from="top-approaching" to="left-exit" type="L0-HDV-"/>
    <trip id="L0-HDV-122" depart="2196.00" from="right-approaching" to="left-exit" type="L0-HDV-"/>
    <trip id="L0-HDV-123" depart="2214.00" from="top-approaching" to="top-exit" type="L0-HDV-"/>
    <trip id="L0-HDV-124" depart="2232.00" from="top-approaching" to="top-exit" type="L0-HDV-"/>
    <trip id="L0-HDV-125" depart="2250.00" from="left-long-approaching" to="bottom-exit" type="L0-HDV-"/>
    <trip id="L0-HDV-126" depart="2268.00" from="left-long-approaching" to="left-exit" type="L0-HDV-"/>
    <trip id="L0-HDV-127" depart="2286.00" from="left-long-approaching" to="right-exit" type="L0-HDV-"/>
    <trip id="L0-HDV-128" depart="2304.00" from="top-approaching" to="right-exit" type="L0-HDV-"/>
    <trip id="L0-HDV-129" depart="2322.00" from="top-approaching" to="bottom-exit" type="L0-HDV-"/>
    <trip id="L0-HDV-130" depart="2340.00" from="left-long-approaching" to="top-exit" type="L0-HDV-"/>
    <trip id="L0-HDV-131" depart="2358.00" from="bottom-approaching" to="left-exit" type="L0-HDV-"/>
    <trip id="L0-HDV-132" depart="2376.00" from="bottom-approaching" to="bottom-exit" type="L0-HDV-"/>
    <trip id="L0-HDV-133" depart="2394.00" from="top-approaching" to="top-exit" type="L0-HDV-"/>
    <trip id="L0-HDV-134" depart="2412.00" from="right-approaching" to="bottom-exit" type="L0-HDV-"/>
    <trip id="L0-HDV-135" depart="2430.00" from="left-long-approaching" to="bottom-exit" type="L0-HDV-"/>
    <trip id="L0-HDV-136" depart="2448.00" from="right-approaching" to="right-exit" type="L0-HDV-"/>
    <trip id="L0-HDV-137" depart="2466.00" from="left-long-approaching" to="right-exit" type="L0-HDV-"/>
    <trip id="L0-HDV-138" depart="2484.00" from="bottom-approaching" to="right-exit" type="L0-HDV-"/>
    <trip id="L0-HDV-139" depart="2502.00" from="top-approaching" to="top-exit" type="L0-HDV-"/>
    <trip id="L0-HDV-140" depart="2520.00" from="bottom-approaching" to="right-exit" type="L0-HDV-"/>
    <trip id="L0-HDV-141" depart="2538.00" from="right-approaching" to="left-exit" type="L0-HDV-"/>
    <trip id="L0-HDV-142" depart="2556.00" from="top-approaching" to="left-exit" type="L0-HDV-"/>
    <trip id="L0-HDV-143" depart="2574.00" from="right-approaching" to="left-exit" type="L0-HDV-"/>
    <trip id="L0-HDV-144" depart="2592.00" from="top-approaching" to="top-exit" type="L0-HDV-"/>
    <trip id="L0-HDV-145" depart="2610.00" from="right-approaching" to="bottom-exit" type="L0-HDV-"/>
    <trip id="L0-HDV-146" depart="2628.00" from="left-long-approaching" to="bottom-exit" type="L0-HDV-"/>
    <trip id="L0-HDV-147" depart="2646.00" from="right-approaching" to="top-exit" type="L0-HDV-"/>
    <trip id="L0-HDV-148" depart="2664.00" from="bottom-approaching" to="right-exit" type="L0-HDV-"/>
    <trip id="L0-HDV-149" depart="2682.00" from="left-long-approaching" to="left-exit" type="L0-HDV-"/>
    <trip id="L0-HDV-150" depart="2700.00" from="right-approaching" to="top-exit" type="L0-HDV-"/>
    <trip id="L0-HDV-151" depart="2718.00" from="right-approaching" to="left-exit" type="L0-HDV-"/>
    <trip id="L0-HDV-152" depart="2736.00" from="top-approaching" to="left-exit" type="L0-HDV-"/>
    <trip id="L0-HDV-153" depart="2754.00" from="right-approaching" to="right-exit" type="L0-HDV-"/>
    <trip id="L0-HDV-154" depart="2772.00" from="top-approaching" to="top-exit" type="L0-HDV-"/>
    <trip id="L0-HDV-155" depart="2790.00" from="bottom-approaching" to="right-exit" type="L0-HDV-"/>
    <trip id="L0-HDV-156" depart="2808.00" from="left-long-approaching" to="right-exit" type="L0-HDV-"/>
    <trip id="L0-HDV-157" depart="2826.00" from="top-approaching" to="right-exit" type="L0-HDV-"/>
    <trip id="L0-HDV-158" depart="2844.00" from="bottom-approaching" to="left-exit" type="L0-HDV-"/>
    <trip id="L0-HDV-159" depart="2862.00" from="right-approaching" to="top-exit" type="L0-HDV-"/>
    <trip id="L0-HDV-160" depart="2880.00" from="right-approaching" to="top-exit" type="L0-HDV-"/>
    <trip id="L0-HDV-161" depart="2898.00" from="bottom-approaching" to="top-exit" type="L0-HDV-"/>
    <trip id="L0-HDV-162" depart="2916.00" from="right-approaching" to="right-exit" type="L0-HDV-"/>
    <trip id="L0-HDV-163" depart="2934.00" from="top-approaching" to="top-exit" type="L0-HDV-"/>
    <trip id="L0-HDV-164" depart="2952.00" from="bottom-approaching" to="top-exit" type="L0-HDV-"/>
    <trip id="L0-HDV-165" depart="2970.00" from="top-approaching" to="bottom-exit" type="L0-HDV-"/>
    <trip id="L0-HDV-166" depart="2988.00" from="right-approaching" to="right-exit" type="L0-HDV-"/>
    <trip id="L0-HDV-167" depart="3006.00" from="bottom-approaching" to="top-exit" type="L0-HDV-"/>
    <trip id="L0-HDV-168" depart="3024.00" from="bottom-approaching" to="right-exit" type="L0-HDV-"/>
    <trip id="L0-HDV-169" depart="3042.00" from="left-long-approaching" to="left-exit" type="L0-HDV-"/>
    <trip id="L0-HDV-170" depart="3060.00" from="right-approaching" to="left-exit" type="L0-HDV-"/>
    <trip id="L0-HDV-171" depart="3078.00" from="bottom-approaching" to="top-exit" type="L0-HDV-"/>
    <trip id="L0-HDV-172" depart="3096.00" from="bottom-approaching" to="bottom-exit" type="L0-HDV-"/>
    <trip id="L0-HDV-173" depart="3114.00" from="left-long-approaching" to="top-exit" type="L0-HDV-"/>
    <trip id="L0-HDV-174" depart="3132.00" from="right-approaching" to="top-exit" type="L0-HDV-"/>
    <trip id="L0-HDV-175" depart="3150.00" from="left-long-approaching" to="right-exit" type="L0-HDV-"/>
    <trip id="L0-HDV-176" depart="3168.00" from="left-long-approaching" to="left-exit" type="L0-HDV-"/>
    <trip id="L0-HDV-177" depart="3186.00" from="preparation" to="bottom-exit" type="L0-HDV-"/>
    <trip id="L0-HDV-178" depart="3204.00" from="bottom-approaching" to="top-exit" type="L0-HDV-"/>
    <trip id="L0-HDV-179" depart="3222.00" from="bottom-approaching" to="right-exit" type="L0-HDV-"/>
    <trip id="L0-HDV-180" depart="3240.00" from="top-approaching" to="left-exit" type="L0-HDV-"/>
    <trip id="L0-HDV-181" depart="3258.00" from="right-approaching" to="top-exit" type="L0-HDV-"/>
    <trip id="L0-HDV-182" depart="3276.00" from="top-approaching" to="bottom-exit" type="L0-HDV-"/>
    <trip id="L0-HDV-183" depart="3294.00" from="bottom-approaching" to="left-exit" type="L0-HDV-"/>
    <trip id="L0-HDV-184" depart="3312.00" from="left-long-approaching" to="left-exit" type="L0-HDV-"/>
    <trip id="L0-HDV-185" depart="3330.00" from="bottom-approaching" to="right-exit" type="L0-HDV-"/>
    <trip id="L0-HDV-186" depart="3348.00" from="top-approaching" to="left-exit" type="L0-HDV-"/>
    <trip id="L0-HDV-187" depart="3366.00" from="right-approaching" to="left-exit" type="L0-HDV-"/>
    <trip id="L0-HDV-188" depart="3384.00" from="left-long-approaching" to="top-exit" type="L0-HDV-"/>
    <trip id="L0-HDV-189" depart="3402.00" from="left-long-approaching" to="right-exit" type="L0-HDV-"/>
    <trip id="L0-HDV-190" depart="3420.00" from="left-long-approaching" to="right-exit" type="L0-HDV-"/>
    <trip id="L0-HDV-191" depart="3438.00" from="top-approaching" to="bottom-exit" type="L0-HDV-"/>
    <trip id="L0-HDV-192" depart="3456.00" from="top-approaching" to="left-exit" type="L0-HDV-"/>
    <trip id="L0-HDV-193" depart="3474.00" from="right-approaching" to="top-exit" type="L0-HDV-"/>
    <trip id="L0-HDV-194" depart="3492.00" from="right-approaching" to="left-exit" type="L0-HDV-"/>
    <trip id="L0-HDV-195" depart="3510.00" from="top-approaching" to="bottom-exit" type="L0-HDV-"/>
    <trip id="L0-HDV-196" depart="3528.00" from="right-approaching" to="left-exit" type="L0-HDV-"/>
    <trip id="L0-HDV-197" depart="3546.00" from="right-approaching" to="top-exit" type="L0-HDV-"/>
    <trip id="L0-HDV-198" depart="3564.00" from="top-approaching" to="right-exit" type="L0-HDV-"/>
    <trip id="L0-HDV-199" depart="3582.00" from="left-long-approaching" to="bottom-exit" type="L0-HDV-"/>
</routes>
