<?xml version="1.0" encoding="UTF-8"?>
<!-- generated on 2021-02-21 17:50:23.789041 by $Id$ v1_8_0+0044-4820708f3d
  options: -n Roadworks/RoadworksIntersection.net.xml -e 50 <doubleminus>fringe-factor 20 -r Roadworks/Route-Files/L0-HDV-Route.rou.xml <doubleminus>trip-attributes=type="L0-HDV" -l <doubleminus>prefix L0-HDV- <doubleminus>seed 5
-->
<routes xmlns:xsi="http://www.w3.org/2001/XMLSchema-instance" xsi:noNamespaceSchemaLocation="http://sumo.dlr.de/xsd/routes_file.xsd">
    <trip id="L0-HDV-0" depart="0.00" from="right-approaching" to="right-exit" type="L0-HDV"/>
    <trip id="L0-HDV-1" depart="1.00" from="top-approaching" to="top-exit" type="L0-HDV"/>
    <trip id="L0-HDV-2" depart="2.00" from="right-approaching" to="top-exit" type="L0-HDV"/>
    <trip id="L0-HDV-3" depart="3.00" from="bottom-approaching" to="left-exit" type="L0-HDV"/>
    <trip id="L0-HDV-4" depart="4.00" from="top-approaching" to="right-exit" type="L0-HDV"/>
    <trip id="L0-HDV-5" depart="5.00" from="top-approaching" to="bottom-exit" type="L0-HDV"/>
    <trip id="L0-HDV-6" depart="6.00" from="left-long-approaching" to="closed-lane" type="L0-HDV"/>
    <trip id="L0-HDV-7" depart="7.00" from="right-approaching" to="right-exit" type="L0-HDV"/>
    <trip id="L0-HDV-8" depart="8.00" from="bottom-approaching" to="bottom-exit" type="L0-HDV"/>
    <trip id="L0-HDV-9" depart="9.00" from="left-long-approaching" to="top-exit" type="L0-HDV"/>
    <trip id="L0-HDV-10" depart="10.00" from="top-approaching" to="bottom-exit" type="L0-HDV"/>
    <trip id="L0-HDV-11" depart="11.00" from="top-approaching" to="bottom-exit" type="L0-HDV"/>
    <trip id="L0-HDV-12" depart="12.00" from="right-approaching" to="bottom-exit" type="L0-HDV"/>
    <trip id="L0-HDV-13" depart="13.00" from="bottom-approaching" to="top-exit" type="L0-HDV"/>
    <trip id="L0-HDV-14" depart="14.00" from="bottom-approaching" to="bottom-exit" type="L0-HDV"/>
    <trip id="L0-HDV-15" depart="15.00" from="top-approaching" to="top-exit" type="L0-HDV"/>
    <trip id="L0-HDV-16" depart="16.00" from="left-long-approaching" to="top-exit" type="L0-HDV"/>
    <trip id="L0-HDV-17" depart="17.00" from="right-approaching" to="right-exit" type="L0-HDV"/>
    <trip id="L0-HDV-18" depart="18.00" from="bottom-approaching" to="top-exit" type="L0-HDV"/>
    <trip id="L0-HDV-19" depart="19.00" from="right-approaching" to="top-exit" type="L0-HDV"/>
    <trip id="L0-HDV-20" depart="20.00" from="top-approaching" to="left-exit" type="L0-HDV"/>
    <trip id="L0-HDV-21" depart="21.00" from="left-long-approaching" to="bottom-exit" type="L0-HDV"/>
    <trip id="L0-HDV-22" depart="22.00" from="bottom-approaching" to="bottom-exit" type="L0-HDV"/>
    <trip id="L0-HDV-23" depart="23.00" from="left-long-approaching" to="right-exit" type="L0-HDV"/>
    <trip id="L0-HDV-24" depart="24.00" from="bottom-approaching" to="right-exit" type="L0-HDV"/>
    <trip id="L0-HDV-25" depart="25.00" from="left-long-approaching" to="left-exit" type="L0-HDV"/>
    <trip id="L0-HDV-26" depart="26.00" from="top-approaching" to="left-exit" type="L0-HDV"/>
    <trip id="L0-HDV-27" depart="27.00" from="left-long-approaching" to="left-exit" type="L0-HDV"/>
    <trip id="L0-HDV-28" depart="28.00" from="right-approaching" to="bottom-exit" type="L0-HDV"/>
    <trip id="L0-HDV-29" depart="29.00" from="top-approaching" to="bottom-exit" type="L0-HDV"/>
    <trip id="L0-HDV-30" depart="30.00" from="right-approaching" to="top-exit" type="L0-HDV"/>
    <trip id="L0-HDV-31" depart="31.00" from="bottom-approaching" to="top-exit" type="L0-HDV"/>
    <trip id="L0-HDV-32" depart="32.00" from="left-long-approaching" to="right-exit" type="L0-HDV"/>
    <trip id="L0-HDV-33" depart="33.00" from="bottom-approaching" to="bottom-exit" type="L0-HDV"/>
    <trip id="L0-HDV-34" depart="34.00" from="bottom-approaching" to="top-exit" type="L0-HDV"/>
    <trip id="L0-HDV-35" depart="35.00" from="bottom-approaching" to="top-exit" type="L0-HDV"/>
    <trip id="L0-HDV-36" depart="36.00" from="top-approaching" to="top-exit" type="L0-HDV"/>
    <trip id="L0-HDV-37" depart="37.00" from="left-long-approaching" to="left-exit" type="L0-HDV"/>
    <trip id="L0-HDV-38" depart="38.00" from="right-approaching" to="top-exit" type="L0-HDV"/>
    <trip id="L0-HDV-39" depart="39.00" from="bottom-approaching" to="right-exit" type="L0-HDV"/>
    <trip id="L0-HDV-40" depart="40.00" from="top-approaching" to="top-exit" type="L0-HDV"/>
    <trip id="L0-HDV-41" depart="41.00" from="bottom-approaching" to="top-exit" type="L0-HDV"/>
    <trip id="L0-HDV-42" depart="42.00" from="bottom-approaching" to="left-exit" type="L0-HDV"/>
    <trip id="L0-HDV-43" depart="43.00" from="right-approaching" to="top-exit" type="L0-HDV"/>
    <trip id="L0-HDV-44" depart="44.00" from="left-long-approaching" to="top-exit" type="L0-HDV"/>
    <trip id="L0-HDV-45" depart="45.00" from="right-approaching" to="left-exit" type="L0-HDV"/>
    <trip id="L0-HDV-46" depart="46.00" from="left-long-approaching" to="bottom-exit" type="L0-HDV"/>
    <trip id="L0-HDV-47" depart="47.00" from="bottom-approaching" to="bottom-exit" type="L0-HDV"/>
    <trip id="L0-HDV-48" depart="48.00" from="right-approaching" to="top-exit" type="L0-HDV"/>
    <trip id="L0-HDV-49" depart="49.00" from="bottom-approaching" to="bottom-exit" type="L0-HDV"/>
</routes>
