<?xml version="1.0" encoding="UTF-8"?>
<!-- generated on 2021-03-13 20:37:59.926925 by $Id$ v1_8_0+0044-4820708f3d
  options: -n Roadworks/RoadworksIntersection.net.xml <doubleminus>fringe-factor 40 -r Roadworks/RealTMSCAV/Route-Files/L4-CV-Route.rou.xml <doubleminus>trip-attributes=type="L4-CV" -l <doubleminus>prefix L4-CV- <doubleminus>seed 9 -p 1.86
-->
<routes xmlns:xsi="http://www.w3.org/2001/XMLSchema-instance" xsi:noNamespaceSchemaLocation="http://sumo.dlr.de/xsd/routes_file.xsd">
    <trip id="L4-CV-0" depart="0.00" from="left-long-approaching" to="left-exit" type="L4-CV"/>
    <trip id="L4-CV-1" depart="1.86" from="bottom-approaching" to="top-exit" type="L4-CV"/>
    <trip id="L4-CV-2" depart="3.72" from="bottom-approaching" to="preparation" type="L4-CV"/>
    <trip id="L4-CV-3" depart="5.58" from="top-approaching" to="bottom-exit" type="L4-CV"/>
    <trip id="L4-CV-4" depart="7.44" from="right-approaching" to="right-exit" type="L4-CV"/>
    <trip id="L4-CV-5" depart="9.30" from="bottom-approaching" to="left-exit" type="L4-CV"/>
    <trip id="L4-CV-6" depart="11.16" from="right-approaching" to="left-exit" type="L4-CV"/>
    <trip id="L4-CV-7" depart="13.02" from="right-approaching" to="bottom-exit" type="L4-CV"/>
    <trip id="L4-CV-8" depart="14.88" from="bottom-approaching" to="bottom-exit" type="L4-CV"/>
    <trip id="L4-CV-9" depart="16.74" from="right-approaching" to="top-exit" type="L4-CV"/>
    <trip id="L4-CV-10" depart="18.60" from="right-approaching" to="top-exit" type="L4-CV"/>
    <trip id="L4-CV-11" depart="20.46" from="left-long-approaching" to="right-exit" type="L4-CV"/>
    <trip id="L4-CV-12" depart="22.32" from="bottom-approaching" to="left-exit" type="L4-CV"/>
    <trip id="L4-CV-13" depart="24.18" from="right-approaching" to="right-exit" type="L4-CV"/>
    <trip id="L4-CV-14" depart="26.04" from="left-long-approaching" to="bottom-exit" type="L4-CV"/>
    <trip id="L4-CV-15" depart="27.90" from="left-long-approaching" to="bottom-exit" type="L4-CV"/>
    <trip id="L4-CV-16" depart="29.76" from="left-long-approaching" to="top-exit" type="L4-CV"/>
    <trip id="L4-CV-17" depart="31.62" from="bottom-approaching" to="top-exit" type="L4-CV"/>
    <trip id="L4-CV-18" depart="33.48" from="top-approaching" to="bottom-exit" type="L4-CV"/>
    <trip id="L4-CV-19" depart="35.34" from="left-long-approaching" to="left-exit" type="L4-CV"/>
    <trip id="L4-CV-20" depart="37.20" from="bottom-approaching" to="left-exit" type="L4-CV"/>
    <trip id="L4-CV-21" depart="39.06" from="top-approaching" to="bottom-exit" type="L4-CV"/>
    <trip id="L4-CV-22" depart="40.92" from="right-approaching" to="bottom-exit" type="L4-CV"/>
    <trip id="L4-CV-23" depart="42.78" from="right-approaching" to="top-exit" type="L4-CV"/>
    <trip id="L4-CV-24" depart="44.64" from="bottom-approaching" to="bottom-exit" type="L4-CV"/>
    <trip id="L4-CV-25" depart="46.50" from="bottom-approaching" to="right-exit" type="L4-CV"/>
    <trip id="L4-CV-26" depart="48.36" from="bottom-approaching" to="bottom-exit" type="L4-CV"/>
    <trip id="L4-CV-27" depart="50.22" from="left-short-approaching" to="top-exit" type="L4-CV"/>
    <trip id="L4-CV-28" depart="52.08" from="left-long-approaching" to="left-exit" type="L4-CV"/>
    <trip id="L4-CV-29" depart="53.94" from="right-approaching" to="bottom-exit" type="L4-CV"/>
    <trip id="L4-CV-30" depart="55.80" from="right-approaching" to="bottom-exit" type="L4-CV"/>
    <trip id="L4-CV-31" depart="57.66" from="right-approaching" to="top-exit" type="L4-CV"/>
    <trip id="L4-CV-32" depart="59.52" from="bottom-approaching" to="right-exit" type="L4-CV"/>
    <trip id="L4-CV-33" depart="61.38" from="right-approaching" to="bottom-exit" type="L4-CV"/>
    <trip id="L4-CV-34" depart="63.24" from="left-long-approaching" to="top-exit" type="L4-CV"/>
    <trip id="L4-CV-35" depart="65.10" from="top-approaching" to="bottom-exit" type="L4-CV"/>
    <trip id="L4-CV-36" depart="66.96" from="right-approaching" to="top-exit" type="L4-CV"/>
    <trip id="L4-CV-37" depart="68.82" from="bottom-approaching" to="right-exit" type="L4-CV"/>
    <trip id="L4-CV-38" depart="70.68" from="bottom-approaching" to="left-exit" type="L4-CV"/>
    <trip id="L4-CV-39" depart="72.54" from="right-approaching" to="right-exit" type="L4-CV"/>
    <trip id="L4-CV-40" depart="74.40" from="top-approaching" to="bottom-exit" type="L4-CV"/>
    <trip id="L4-CV-41" depart="76.26" from="left-long-approaching" to="top-exit" type="L4-CV"/>
    <trip id="L4-CV-42" depart="78.12" from="right-approaching" to="left-exit" type="L4-CV"/>
    <trip id="L4-CV-43" depart="79.98" from="left-long-approaching" to="top-exit" type="L4-CV"/>
    <trip id="L4-CV-44" depart="81.84" from="right-approaching" to="bottom-exit" type="L4-CV"/>
    <trip id="L4-CV-45" depart="83.70" from="top-approaching" to="left-exit" type="L4-CV"/>
    <trip id="L4-CV-46" depart="85.56" from="left-long-approaching" to="bottom-exit" type="L4-CV"/>
    <trip id="L4-CV-47" depart="87.42" from="left-long-approaching" to="left-exit" type="L4-CV"/>
    <trip id="L4-CV-48" depart="89.28" from="bottom-approaching" to="right-exit" type="L4-CV"/>
    <trip id="L4-CV-49" depart="91.14" from="bottom-approaching" to="top-exit" type="L4-CV"/>
    <trip id="L4-CV-50" depart="93.00" from="bottom-approaching" to="top-exit" type="L4-CV"/>
    <trip id="L4-CV-51" depart="94.86" from="top-approaching" to="left-short-approaching" type="L4-CV"/>
    <trip id="L4-CV-52" depart="96.72" from="right-approaching" to="closed-lane" type="L4-CV"/>
    <trip id="L4-CV-53" depart="98.58" from="right-approaching" to="left-exit" type="L4-CV"/>
    <trip id="L4-CV-54" depart="100.44" from="bottom-approaching" to="top-exit" type="L4-CV"/>
    <trip id="L4-CV-55" depart="102.30" from="left-long-approaching" to="left-exit" type="L4-CV"/>
    <trip id="L4-CV-56" depart="104.16" from="top-approaching" to="left-exit" type="L4-CV"/>
    <trip id="L4-CV-57" depart="106.02" from="right-approaching" to="bottom-exit" type="L4-CV"/>
    <trip id="L4-CV-58" depart="107.88" from="top-approaching" to="left-exit" type="L4-CV"/>
    <trip id="L4-CV-59" depart="109.74" from="bottom-approaching" to="top-exit" type="L4-CV"/>
    <trip id="L4-CV-60" depart="111.60" from="bottom-approaching" to="top-exit" type="L4-CV"/>
    <trip id="L4-CV-61" depart="113.46" from="top-approaching" to="right-exit" type="L4-CV"/>
    <trip id="L4-CV-62" depart="115.32" from="bottom-approaching" to="bottom-exit" type="L4-CV"/>
    <trip id="L4-CV-63" depart="117.18" from="bottom-approaching" to="left-exit" type="L4-CV"/>
    <trip id="L4-CV-64" depart="119.04" from="right-approaching" to="top-exit" type="L4-CV"/>
    <trip id="L4-CV-65" depart="120.90" from="left-long-approaching" to="bottom-exit" type="L4-CV"/>
    <trip id="L4-CV-66" depart="122.76" from="right-approaching" to="bottom-exit" type="L4-CV"/>
    <trip id="L4-CV-67" depart="124.62" from="bottom-approaching" to="right-exit" type="L4-CV"/>
    <trip id="L4-CV-68" depart="126.48" from="right-approaching" to="bottom-exit" type="L4-CV"/>
    <trip id="L4-CV-69" depart="128.34" from="left-long-approaching" to="right-exit" type="L4-CV"/>
    <trip id="L4-CV-70" depart="130.20" from="top-approaching" to="left-exit" type="L4-CV"/>
    <trip id="L4-CV-71" depart="132.06" from="top-approaching" to="bottom-exit" type="L4-CV"/>
    <trip id="L4-CV-72" depart="133.92" from="right-approaching" to="top-exit" type="L4-CV"/>
    <trip id="L4-CV-73" depart="135.78" from="top-approaching" to="left-exit" type="L4-CV"/>
    <trip id="L4-CV-74" depart="137.64" from="bottom-approaching" to="bottom-exit" type="L4-CV"/>
    <trip id="L4-CV-75" depart="139.50" from="right-approaching" to="bottom-exit" type="L4-CV"/>
    <trip id="L4-CV-76" depart="141.36" from="right-approaching" to="bottom-exit" type="L4-CV"/>
    <trip id="L4-CV-77" depart="143.22" from="top-approaching" to="bottom-exit" type="L4-CV"/>
    <trip id="L4-CV-78" depart="145.08" from="bottom-approaching" to="bottom-exit" type="L4-CV"/>
    <trip id="L4-CV-79" depart="146.94" from="left-long-approaching" to="right-exit" type="L4-CV"/>
    <trip id="L4-CV-80" depart="148.80" from="left-long-approaching" to="bottom-exit" type="L4-CV"/>
    <trip id="L4-CV-81" depart="150.66" from="left-long-approaching" to="top-exit" type="L4-CV"/>
    <trip id="L4-CV-82" depart="152.52" from="right-approaching" to="top-exit" type="L4-CV"/>
    <trip id="L4-CV-83" depart="154.38" from="bottom-approaching" to="top-exit" type="L4-CV"/>
    <trip id="L4-CV-84" depart="156.24" from="top-approaching" to="right-exit" type="L4-CV"/>
    <trip id="L4-CV-85" depart="158.10" from="right-approaching" to="right-exit" type="L4-CV"/>
    <trip id="L4-CV-86" depart="159.96" from="top-approaching" to="bottom-exit" type="L4-CV"/>
    <trip id="L4-CV-87" depart="161.82" from="right-approaching" to="right-exit" type="L4-CV"/>
    <trip id="L4-CV-88" depart="163.68" from="left-long-approaching" to="right-exit" type="L4-CV"/>
    <trip id="L4-CV-89" depart="165.54" from="right-approaching" to="bottom-exit" type="L4-CV"/>
    <trip id="L4-CV-90" depart="167.40" from="right-approaching" to="left-exit" type="L4-CV"/>
    <trip id="L4-CV-91" depart="169.26" from="left-long-approaching" to="right-exit" type="L4-CV"/>
    <trip id="L4-CV-92" depart="171.12" from="bottom-approaching" to="right-exit" type="L4-CV"/>
    <trip id="L4-CV-93" depart="172.98" from="left-long-approaching" to="top-exit" type="L4-CV"/>
    <trip id="L4-CV-94" depart="174.84" from="bottom-approaching" to="top-exit" type="L4-CV"/>
    <trip id="L4-CV-95" depart="176.70" from="right-approaching" to="right-exit" type="L4-CV"/>
    <trip id="L4-CV-96" depart="178.56" from="top-approaching" to="bottom-exit" type="L4-CV"/>
    <trip id="L4-CV-97" depart="180.42" from="right-approaching" to="right-exit" type="L4-CV"/>
    <trip id="L4-CV-98" depart="182.28" from="right-approaching" to="left-exit" type="L4-CV"/>
    <trip id="L4-CV-99" depart="184.14" from="bottom-approaching" to="bottom-exit" type="L4-CV"/>
    <trip id="L4-CV-100" depart="186.00" from="right-approaching" to="bottom-exit" type="L4-CV"/>
    <trip id="L4-CV-101" depart="187.86" from="bottom-approaching" to="left-exit" type="L4-CV"/>
    <trip id="L4-CV-102" depart="189.72" from="left-long-approaching" to="right-exit" type="L4-CV"/>
    <trip id="L4-CV-103" depart="191.58" from="bottom-approaching" to="top-exit" type="L4-CV"/>
    <trip id="L4-CV-104" depart="193.44" from="left-long-approaching" to="top-exit" type="L4-CV"/>
    <trip id="L4-CV-105" depart="195.30" from="bottom-approaching" to="top-exit" type="L4-CV"/>
    <trip id="L4-CV-106" depart="197.16" from="right-approaching" to="top-exit" type="L4-CV"/>
    <trip id="L4-CV-107" depart="199.02" from="top-approaching" to="top-exit" type="L4-CV"/>
    <trip id="L4-CV-108" depart="200.88" from="bottom-approaching" to="left-exit" type="L4-CV"/>
    <trip id="L4-CV-109" depart="202.74" from="bottom-approaching" to="top-exit" type="L4-CV"/>
    <trip id="L4-CV-110" depart="204.60" from="bottom-approaching" to="bottom-exit" type="L4-CV"/>
    <trip id="L4-CV-111" depart="206.46" from="bottom-approaching" to="bottom-exit" type="L4-CV"/>
    <trip id="L4-CV-112" depart="208.32" from="top-approaching" to="top-exit" type="L4-CV"/>
    <trip id="L4-CV-113" depart="210.18" from="left-long-approaching" to="right-exit" type="L4-CV"/>
    <trip id="L4-CV-114" depart="212.04" from="left-long-approaching" to="right-exit" type="L4-CV"/>
    <trip id="L4-CV-115" depart="213.90" from="left-long-approaching" to="right-exit" type="L4-CV"/>
    <trip id="L4-CV-116" depart="215.76" from="bottom-approaching" to="left-exit" type="L4-CV"/>
    <trip id="L4-CV-117" depart="217.62" from="right-approaching" to="bottom-exit" type="L4-CV"/>
    <trip id="L4-CV-118" depart="219.48" from="left-long-approaching" to="top-exit" type="L4-CV"/>
    <trip id="L4-CV-119" depart="221.34" from="bottom-approaching" to="bottom-exit" type="L4-CV"/>
    <trip id="L4-CV-120" depart="223.20" from="top-approaching" to="bottom-exit" type="L4-CV"/>
    <trip id="L4-CV-121" depart="225.06" from="left-long-approaching" to="top-exit" type="L4-CV"/>
    <trip id="L4-CV-122" depart="226.92" from="right-approaching" to="bottom-exit" type="L4-CV"/>
    <trip id="L4-CV-123" depart="228.78" from="bottom-approaching" to="left-exit" type="L4-CV"/>
    <trip id="L4-CV-124" depart="230.64" from="left-long-approaching" to="top-exit" type="L4-CV"/>
    <trip id="L4-CV-125" depart="232.50" from="top-approaching" to="top-exit" type="L4-CV"/>
    <trip id="L4-CV-126" depart="234.36" from="top-approaching" to="top-exit" type="L4-CV"/>
    <trip id="L4-CV-127" depart="236.22" from="top-approaching" to="top-exit" type="L4-CV"/>
    <trip id="L4-CV-128" depart="238.08" from="top-approaching" to="bottom-exit" type="L4-CV"/>
    <trip id="L4-CV-129" depart="239.94" from="left-long-approaching" to="bottom-exit" type="L4-CV"/>
    <trip id="L4-CV-130" depart="241.80" from="right-approaching" to="left-exit" type="L4-CV"/>
    <trip id="L4-CV-131" depart="243.66" from="left-long-approaching" to="top-exit" type="L4-CV"/>
    <trip id="L4-CV-132" depart="245.52" from="left-long-approaching" to="bottom-exit" type="L4-CV"/>
    <trip id="L4-CV-133" depart="247.38" from="left-long-approaching" to="left-exit" type="L4-CV"/>
    <trip id="L4-CV-134" depart="249.24" from="right-approaching" to="right-exit" type="L4-CV"/>
    <trip id="L4-CV-135" depart="251.10" from="left-long-approaching" to="bottom-exit" type="L4-CV"/>
    <trip id="L4-CV-136" depart="252.96" from="left-long-approaching" to="left-exit" type="L4-CV"/>
    <trip id="L4-CV-137" depart="254.82" from="bottom-approaching" to="right-exit" type="L4-CV"/>
    <trip id="L4-CV-138" depart="256.68" from="bottom-approaching" to="right-exit" type="L4-CV"/>
    <trip id="L4-CV-139" depart="258.54" from="right-approaching" to="bottom-exit" type="L4-CV"/>
    <trip id="L4-CV-140" depart="260.40" from="right-approaching" to="left-exit" type="L4-CV"/>
    <trip id="L4-CV-141" depart="262.26" from="left-long-approaching" to="right-exit" type="L4-CV"/>
    <trip id="L4-CV-142" depart="264.12" from="top-approaching" to="top-exit" type="L4-CV"/>
    <trip id="L4-CV-143" depart="265.98" from="right-approaching" to="bottom-exit" type="L4-CV"/>
    <trip id="L4-CV-144" depart="267.84" from="right-approaching" to="left-exit" type="L4-CV"/>
    <trip id="L4-CV-145" depart="269.70" from="bottom-approaching" to="right-exit" type="L4-CV"/>
    <trip id="L4-CV-146" depart="271.56" from="left-long-approaching" to="top-exit" type="L4-CV"/>
    <trip id="L4-CV-147" depart="273.42" from="left-long-approaching" to="top-exit" type="L4-CV"/>
    <trip id="L4-CV-148" depart="275.28" from="right-approaching" to="bottom-exit" type="L4-CV"/>
    <trip id="L4-CV-149" depart="277.14" from="right-approaching" to="left-exit" type="L4-CV"/>
    <trip id="L4-CV-150" depart="279.00" from="right-approaching" to="bottom-exit" type="L4-CV"/>
    <trip id="L4-CV-151" depart="280.86" from="bottom-approaching" to="top-exit" type="L4-CV"/>
    <trip id="L4-CV-152" depart="282.72" from="bottom-approaching" to="bottom-exit" type="L4-CV"/>
    <trip id="L4-CV-153" depart="284.58" from="bottom-approaching" to="bottom-exit" type="L4-CV"/>
    <trip id="L4-CV-154" depart="286.44" from="top-approaching" to="top-exit" type="L4-CV"/>
    <trip id="L4-CV-155" depart="288.30" from="right-approaching" to="left-exit" type="L4-CV"/>
    <trip id="L4-CV-156" depart="290.16" from="top-approaching" to="right-exit" type="L4-CV"/>
    <trip id="L4-CV-157" depart="292.02" from="bottom-approaching" to="right-exit" type="L4-CV"/>
    <trip id="L4-CV-158" depart="293.88" from="left-long-approaching" to="left-exit" type="L4-CV"/>
    <trip id="L4-CV-159" depart="295.74" from="left-long-approaching" to="left-exit" type="L4-CV"/>
    <trip id="L4-CV-160" depart="297.60" from="bottom-approaching" to="right-exit" type="L4-CV"/>
    <trip id="L4-CV-161" depart="299.46" from="top-approaching" to="right-exit" type="L4-CV"/>
    <trip id="L4-CV-162" depart="301.32" from="bottom-approaching" to="right-exit" type="L4-CV"/>
    <trip id="L4-CV-163" depart="303.18" from="bottom-approaching" to="left-exit" type="L4-CV"/>
    <trip id="L4-CV-164" depart="305.04" from="top-approaching" to="right-exit" type="L4-CV"/>
    <trip id="L4-CV-165" depart="306.90" from="top-approaching" to="top-exit" type="L4-CV"/>
    <trip id="L4-CV-166" depart="308.76" from="left-long-approaching" to="bottom-exit" type="L4-CV"/>
    <trip id="L4-CV-167" depart="310.62" from="left-long-approaching" to="right-exit" type="L4-CV"/>
    <trip id="L4-CV-168" depart="312.48" from="bottom-approaching" to="left-exit" type="L4-CV"/>
    <trip id="L4-CV-169" depart="314.34" from="right-approaching" to="left-exit" type="L4-CV"/>
    <trip id="L4-CV-170" depart="316.20" from="right-approaching" to="right-exit" type="L4-CV"/>
    <trip id="L4-CV-171" depart="318.06" from="top-approaching" to="bottom-exit" type="L4-CV"/>
    <trip id="L4-CV-172" depart="319.92" from="bottom-approaching" to="top-exit" type="L4-CV"/>
    <trip id="L4-CV-173" depart="321.78" from="right-approaching" to="bottom-exit" type="L4-CV"/>
    <trip id="L4-CV-174" depart="323.64" from="bottom-approaching" to="bottom-exit" type="L4-CV"/>
    <trip id="L4-CV-175" depart="325.50" from="right-approaching" to="top-exit" type="L4-CV"/>
    <trip id="L4-CV-176" depart="327.36" from="bottom-approaching" to="bottom-exit" type="L4-CV"/>
    <trip id="L4-CV-177" depart="329.22" from="right-approaching" to="left-exit" type="L4-CV"/>
    <trip id="L4-CV-178" depart="331.08" from="top-approaching" to="top-exit" type="L4-CV"/>
    <trip id="L4-CV-179" depart="332.94" from="top-approaching" to="right-exit" type="L4-CV"/>
    <trip id="L4-CV-180" depart="334.80" from="left-long-approaching" to="bottom-exit" type="L4-CV"/>
    <trip id="L4-CV-181" depart="336.66" from="top-approaching" to="left-exit" type="L4-CV"/>
    <trip id="L4-CV-182" depart="338.52" from="left-long-approaching" to="right-exit" type="L4-CV"/>
    <trip id="L4-CV-183" depart="340.38" from="top-approaching" to="right-exit" type="L4-CV"/>
    <trip id="L4-CV-184" depart="342.24" from="top-approaching" to="top-exit" type="L4-CV"/>
    <trip id="L4-CV-185" depart="344.10" from="bottom-approaching" to="left-exit" type="L4-CV"/>
    <trip id="L4-CV-186" depart="345.96" from="top-approaching" to="top-exit" type="L4-CV"/>
    <trip id="L4-CV-187" depart="347.82" from="top-approaching" to="bottom-exit" type="L4-CV"/>
    <trip id="L4-CV-188" depart="349.68" from="right-approaching" to="top-exit" type="L4-CV"/>
    <trip id="L4-CV-189" depart="351.54" from="right-approaching" to="right-exit" type="L4-CV"/>
    <trip id="L4-CV-190" depart="353.40" from="top-approaching" to="bottom-exit" type="L4-CV"/>
    <trip id="L4-CV-191" depart="355.26" from="bottom-approaching" to="top-exit" type="L4-CV"/>
    <trip id="L4-CV-192" depart="357.12" from="right-approaching" to="bottom-exit" type="L4-CV"/>
    <trip id="L4-CV-193" depart="358.98" from="top-approaching" to="left-exit" type="L4-CV"/>
    <trip id="L4-CV-194" depart="360.84" from="bottom-approaching" to="left-exit" type="L4-CV"/>
    <trip id="L4-CV-195" depart="362.70" from="bottom-approaching" to="left-exit" type="L4-CV"/>
    <trip id="L4-CV-196" depart="364.56" from="top-approaching" to="left-exit" type="L4-CV"/>
    <trip id="L4-CV-197" depart="366.42" from="top-approaching" to="bottom-exit" type="L4-CV"/>
    <trip id="L4-CV-198" depart="368.28" from="bottom-approaching" to="bottom-exit" type="L4-CV"/>
    <trip id="L4-CV-199" depart="370.14" from="right-approaching" to="bottom-exit" type="L4-CV"/>
    <trip id="L4-CV-200" depart="372.00" from="right-approaching" to="right-exit" type="L4-CV"/>
    <trip id="L4-CV-201" depart="373.86" from="right-approaching" to="top-exit" type="L4-CV"/>
    <trip id="L4-CV-202" depart="375.72" from="top-approaching" to="top-exit" type="L4-CV"/>
    <trip id="L4-CV-203" depart="377.58" from="bottom-approaching" to="left-exit" type="L4-CV"/>
    <trip id="L4-CV-204" depart="379.44" from="top-approaching" to="left-exit" type="L4-CV"/>
    <trip id="L4-CV-205" depart="381.30" from="left-long-approaching" to="left-exit" type="L4-CV"/>
    <trip id="L4-CV-206" depart="383.16" from="bottom-approaching" to="top-exit" type="L4-CV"/>
    <trip id="L4-CV-207" depart="385.02" from="right-approaching" to="bottom-exit" type="L4-CV"/>
    <trip id="L4-CV-208" depart="386.88" from="top-approaching" to="right-exit" type="L4-CV"/>
    <trip id="L4-CV-209" depart="388.74" from="left-long-approaching" to="right-exit" type="L4-CV"/>
    <trip id="L4-CV-210" depart="390.60" from="top-approaching" to="left-exit" type="L4-CV"/>
    <trip id="L4-CV-211" depart="392.46" from="bottom-approaching" to="bottom-exit" type="L4-CV"/>
    <trip id="L4-CV-212" depart="394.32" from="bottom-approaching" to="right-exit" type="L4-CV"/>
    <trip id="L4-CV-213" depart="396.18" from="left-long-approaching" to="top-exit" type="L4-CV"/>
    <trip id="L4-CV-214" depart="398.04" from="bottom-approaching" to="bottom-exit" type="L4-CV"/>
    <trip id="L4-CV-215" depart="399.90" from="left-long-approaching" to="bottom-exit" type="L4-CV"/>
    <trip id="L4-CV-216" depart="401.76" from="left-long-approaching" to="bottom-exit" type="L4-CV"/>
    <trip id="L4-CV-217" depart="403.62" from="bottom-approaching" to="right-exit" type="L4-CV"/>
    <trip id="L4-CV-218" depart="405.48" from="top-approaching" to="left-exit" type="L4-CV"/>
    <trip id="L4-CV-219" depart="407.34" from="right-approaching" to="left-exit" type="L4-CV"/>
    <trip id="L4-CV-220" depart="409.20" from="top-approaching" to="right-exit" type="L4-CV"/>
    <trip id="L4-CV-221" depart="411.06" from="bottom-approaching" to="right-exit" type="L4-CV"/>
    <trip id="L4-CV-222" depart="412.92" from="bottom-approaching" to="bottom-exit" type="L4-CV"/>
    <trip id="L4-CV-223" depart="414.78" from="bottom-approaching" to="top-exit" type="L4-CV"/>
    <trip id="L4-CV-224" depart="416.64" from="right-approaching" to="left-exit" type="L4-CV"/>
    <trip id="L4-CV-225" depart="418.50" from="right-approaching" to="right-exit" type="L4-CV"/>
    <trip id="L4-CV-226" depart="420.36" from="bottom-approaching" to="right-exit" type="L4-CV"/>
    <trip id="L4-CV-227" depart="422.22" from="right-approaching" to="top-exit" type="L4-CV"/>
    <trip id="L4-CV-228" depart="424.08" from="bottom-approaching" to="right-exit" type="L4-CV"/>
    <trip id="L4-CV-229" depart="425.94" from="right-approaching" to="top-exit" type="L4-CV"/>
    <trip id="L4-CV-230" depart="427.80" from="left-long-approaching" to="right-exit" type="L4-CV"/>
    <trip id="L4-CV-231" depart="429.66" from="top-approaching" to="left-exit" type="L4-CV"/>
    <trip id="L4-CV-232" depart="431.52" from="right-approaching" to="top-exit" type="L4-CV"/>
    <trip id="L4-CV-233" depart="433.38" from="bottom-approaching" to="top-exit" type="L4-CV"/>
    <trip id="L4-CV-234" depart="435.24" from="left-long-approaching" to="left-exit" type="L4-CV"/>
    <trip id="L4-CV-235" depart="437.10" from="left-long-approaching" to="top-exit" type="L4-CV"/>
    <trip id="L4-CV-236" depart="438.96" from="right-approaching" to="right-exit" type="L4-CV"/>
    <trip id="L4-CV-237" depart="440.82" from="bottom-approaching" to="top-exit" type="L4-CV"/>
    <trip id="L4-CV-238" depart="442.68" from="top-approaching" to="right-exit" type="L4-CV"/>
    <trip id="L4-CV-239" depart="444.54" from="bottom-approaching" to="left-exit" type="L4-CV"/>
    <trip id="L4-CV-240" depart="446.40" from="left-long-approaching" to="bottom-exit" type="L4-CV"/>
    <trip id="L4-CV-241" depart="448.26" from="top-approaching" to="left-exit" type="L4-CV"/>
    <trip id="L4-CV-242" depart="450.12" from="top-approaching" to="bottom-exit" type="L4-CV"/>
    <trip id="L4-CV-243" depart="451.98" from="right-approaching" to="top-exit" type="L4-CV"/>
    <trip id="L4-CV-244" depart="453.84" from="right-approaching" to="left-exit" type="L4-CV"/>
    <trip id="L4-CV-245" depart="455.70" from="bottom-approaching" to="left-exit" type="L4-CV"/>
    <trip id="L4-CV-246" depart="457.56" from="left-long-approaching" to="top-exit" type="L4-CV"/>
    <trip id="L4-CV-247" depart="459.42" from="top-approaching" to="top-exit" type="L4-CV"/>
    <trip id="L4-CV-248" depart="461.28" from="top-approaching" to="bottom-exit" type="L4-CV"/>
    <trip id="L4-CV-249" depart="463.14" from="bottom-approaching" to="left-exit" type="L4-CV"/>
    <trip id="L4-CV-250" depart="465.00" from="bottom-approaching" to="bottom-exit" type="L4-CV"/>
    <trip id="L4-CV-251" depart="466.86" from="right-approaching" to="bottom-exit" type="L4-CV"/>
    <trip id="L4-CV-252" depart="468.72" from="right-approaching" to="left-exit" type="L4-CV"/>
    <trip id="L4-CV-253" depart="470.58" from="left-long-approaching" to="top-exit" type="L4-CV"/>
    <trip id="L4-CV-254" depart="472.44" from="bottom-approaching" to="top-exit" type="L4-CV"/>
    <trip id="L4-CV-255" depart="474.30" from="right-approaching" to="right-exit" type="L4-CV"/>
    <trip id="L4-CV-256" depart="476.16" from="bottom-approaching" to="right-exit" type="L4-CV"/>
    <trip id="L4-CV-257" depart="478.02" from="top-approaching" to="bottom-exit" type="L4-CV"/>
    <trip id="L4-CV-258" depart="479.88" from="left-long-approaching" to="right-exit" type="L4-CV"/>
    <trip id="L4-CV-259" depart="481.74" from="left-long-approaching" to="right-exit" type="L4-CV"/>
    <trip id="L4-CV-260" depart="483.60" from="right-approaching" to="left-exit" type="L4-CV"/>
    <trip id="L4-CV-261" depart="485.46" from="right-approaching" to="top-exit" type="L4-CV"/>
    <trip id="L4-CV-262" depart="487.32" from="left-long-approaching" to="right-exit" type="L4-CV"/>
    <trip id="L4-CV-263" depart="489.18" from="right-approaching" to="left-exit" type="L4-CV"/>
    <trip id="L4-CV-264" depart="491.04" from="bottom-approaching" to="left-exit" type="L4-CV"/>
    <trip id="L4-CV-265" depart="492.90" from="top-approaching" to="right-exit" type="L4-CV"/>
    <trip id="L4-CV-266" depart="494.76" from="bottom-approaching" to="left-exit" type="L4-CV"/>
    <trip id="L4-CV-267" depart="496.62" from="right-approaching" to="right-exit" type="L4-CV"/>
    <trip id="L4-CV-268" depart="498.48" from="bottom-approaching" to="right-exit" type="L4-CV"/>
    <trip id="L4-CV-269" depart="500.34" from="right-approaching" to="right-exit" type="L4-CV"/>
    <trip id="L4-CV-270" depart="502.20" from="top-approaching" to="right-exit" type="L4-CV"/>
    <trip id="L4-CV-271" depart="504.06" from="bottom-approaching" to="left-exit" type="L4-CV"/>
    <trip id="L4-CV-272" depart="505.92" from="right-approaching" to="bottom-exit" type="L4-CV"/>
    <trip id="L4-CV-273" depart="507.78" from="top-approaching" to="right-exit" type="L4-CV"/>
    <trip id="L4-CV-274" depart="509.64" from="top-approaching" to="bottom-exit" type="L4-CV"/>
    <trip id="L4-CV-275" depart="511.50" from="bottom-approaching" to="top-exit" type="L4-CV"/>
    <trip id="L4-CV-276" depart="513.36" from="right-approaching" to="left-exit" type="L4-CV"/>
    <trip id="L4-CV-277" depart="515.22" from="right-approaching" to="top-exit" type="L4-CV"/>
    <trip id="L4-CV-278" depart="517.08" from="left-long-approaching" to="top-exit" type="L4-CV"/>
    <trip id="L4-CV-279" depart="518.94" from="bottom-approaching" to="top-exit" type="L4-CV"/>
    <trip id="L4-CV-280" depart="520.80" from="right-approaching" to="left-exit" type="L4-CV"/>
    <trip id="L4-CV-281" depart="522.66" from="left-long-approaching" to="top-exit" type="L4-CV"/>
    <trip id="L4-CV-282" depart="524.52" from="left-long-approaching" to="right-exit" type="L4-CV"/>
    <trip id="L4-CV-283" depart="526.38" from="top-approaching" to="top-exit" type="L4-CV"/>
    <trip id="L4-CV-284" depart="528.24" from="left-long-approaching" to="top-exit" type="L4-CV"/>
    <trip id="L4-CV-285" depart="530.10" from="right-approaching" to="top-exit" type="L4-CV"/>
    <trip id="L4-CV-286" depart="531.96" from="bottom-approaching" to="left-exit" type="L4-CV"/>
    <trip id="L4-CV-287" depart="533.82" from="left-long-approaching" to="top-exit" type="L4-CV"/>
    <trip id="L4-CV-288" depart="535.68" from="left-long-approaching" to="bottom-exit" type="L4-CV"/>
    <trip id="L4-CV-289" depart="537.54" from="bottom-approaching" to="top-exit" type="L4-CV"/>
    <trip id="L4-CV-290" depart="539.40" from="top-approaching" to="right-exit" type="L4-CV"/>
    <trip id="L4-CV-291" depart="541.26" from="bottom-approaching" to="top-exit" type="L4-CV"/>
    <trip id="L4-CV-292" depart="543.12" from="top-approaching" to="left-exit" type="L4-CV"/>
    <trip id="L4-CV-293" depart="544.98" from="left-long-approaching" to="left-exit" type="L4-CV"/>
    <trip id="L4-CV-294" depart="546.84" from="bottom-approaching" to="right-exit" type="L4-CV"/>
    <trip id="L4-CV-295" depart="548.70" from="bottom-approaching" to="bottom-exit" type="L4-CV"/>
    <trip id="L4-CV-296" depart="550.56" from="top-approaching" to="bottom-exit" type="L4-CV"/>
    <trip id="L4-CV-297" depart="552.42" from="top-approaching" to="top-exit" type="L4-CV"/>
    <trip id="L4-CV-298" depart="554.28" from="left-long-approaching" to="left-exit" type="L4-CV"/>
    <trip id="L4-CV-299" depart="556.14" from="bottom-approaching" to="right-exit" type="L4-CV"/>
    <trip id="L4-CV-300" depart="558.00" from="top-approaching" to="right-exit" type="L4-CV"/>
    <trip id="L4-CV-301" depart="559.86" from="left-long-approaching" to="right-exit" type="L4-CV"/>
    <trip id="L4-CV-302" depart="561.72" from="left-long-approaching" to="right-exit" type="L4-CV"/>
    <trip id="L4-CV-303" depart="563.58" from="left-long-approaching" to="bottom-exit" type="L4-CV"/>