<?xml version="1.0" encoding="UTF-8"?>
<!-- generated on 2021-03-15 14:20:55.342318 by $Id$ v1_8_0+0044-4820708f3d
  options: -n Roadworks/RoadworksIntersection.net.xml <doubleminus>fringe-factor 40 -r Roadworks/RealTMSPenetration1/Route-Files/L0-HDV-Route.rou.xml <doubleminus>trip-attributes=type="L0-HDV-" -l <doubleminus>prefix L0-HDV- <doubleminus>seed 0 -p 36
-->
<routes xmlns:xsi="http://www.w3.org/2001/XMLSchema-instance" xsi:noNamespaceSchemaLocation="http://sumo.dlr.de/xsd/routes_file.xsd">
    <trip id="L0-HDV-0" depart="0.00" from="top-approaching" to="top-exit" type="L0-HDV-"/>
    <trip id="L0-HDV-1" depart="36.00" from="left-long-approaching" to="left-exit" type="L0-HDV-"/>
    <trip id="L0-HDV-2" depart="72.00" from="right-approaching" to="left-exit" type="L0-HDV-"/>
    <trip id="L0-HDV-3" depart="108.00" from="top-approaching" to="left-exit" type="L0-HDV-"/>
    <trip id="L0-HDV-4" depart="144.00" from="left-long-approaching" to="right-exit" type="L0-HDV-"/>
    <trip id="L0-HDV-5" depart="180.00" from="top-approaching" to="right-exit" type="L0-HDV-"/>
    <trip id="L0-HDV-6" depart="216.00" from="left-long-approaching" to="top-exit" type="L0-HDV-"/>
    <trip id="L0-HDV-7" depart="252.00" from="right-approaching" to="left-exit" type="L0-HDV-"/>
    <trip id="L0-HDV-8" depart="288.00" from="top-approaching" to="top-exit" type="L0-HDV-"/>
    <trip id="L0-HDV-9" depart="324.00" from="top-approaching" to="top-exit" type="L0-HDV-"/>
    <trip id="L0-HDV-10" depart="360.00" from="left-long-approaching" to="right-exit" type="L0-HDV-"/>
    <trip id="L0-HDV-11" depart="396.00" from="top-approaching" to="right-exit" type="L0-HDV-"/>
    <trip id="L0-HDV-12" depart="432.00" from="left-long-approaching" to="bottom-exit" type="L0-HDV-"/>
    <trip id="L0-HDV-13" depart="468.00" from="left-long-approaching" to="right-exit" type="L0-HDV-"/>
    <trip id="L0-HDV-14" depart="504.00" from="top-approaching" to="top-exit" type="L0-HDV-"/>
    <trip id="L0-HDV-15" depart="540.00" from="left-long-approaching" to="top-exit" type="L0-HDV-"/>
    <trip id="L0-HDV-16" depart="576.00" from="left-long-approaching" to="top-exit" type="L0-HDV-"/>
    <trip id="L0-HDV-17" depart="612.00" from="right-approaching" to="bottom-exit" type="L0-HDV-"/>
    <trip id="L0-HDV-18" depart="648.00" from="right-approaching" to="left-exit" type="L0-HDV-"/>
    <trip id="L0-HDV-19" depart="684.00" from="top-approaching" to="right-exit" type="L0-HDV-"/>
    <trip id="L0-HDV-20" depart="720.00" from="bottom-approaching" to="left-exit" type="L0-HDV-"/>
    <trip id="L0-HDV-21" depart="756.00" from="top-approaching" to="bottom-exit" type="L0-HDV-"/>
    <trip id="L0-HDV-22" depart="792.00" from="left-long-approaching" to="top-exit" type="L0-HDV-"/>
    <trip id="L0-HDV-23" depart="828.00" from="bottom-approaching" to="right-exit" type="L0-HDV-"/>
    <trip id="L0-HDV-24" depart="864.00" from="bottom-approaching" to="top-exit" type="L0-HDV-"/>
    <trip id="L0-HDV-25" depart="900.00" from="top-approaching" to="left-exit" type="L0-HDV-"/>
    <trip id="L0-HDV-26" depart="936.00" from="bottom-approaching" to="left-exit" type="L0-HDV-"/>
    <trip id="L0-HDV-27" depart="972.00" from="right-approaching" to="top-exit" type="L0-HDV-"/>
    <trip id="L0-HDV-28" depart="1008.00" from="bottom-approaching" to="right-exit" type="L0-HDV-"/>
    <trip id="L0-HDV-29" depart="1044.00" from="right-approaching" to="right-exit" type="L0-HDV-"/>
    <trip id="L0-HDV-30" depart="1080.00" from="top-approaching" to="right-exit" type="L0-HDV-"/>
    <trip id="L0-HDV-31" depart="1116.00" from="top-approaching" to="right-exit" type="L0-HDV-"/>
    <trip id="L0-HDV-32" depart="1152.00" from="right-approaching" to="left-exit" type="L0-HDV-"/>
    <trip id="L0-HDV-33" depart="1188.00" from="right-approaching" to="left-exit" type="L0-HDV-"/>
    <trip id="L0-HDV-34" depart="1224.00" from="right-approaching" to="left-exit" type="L0-HDV-"/>
    <trip id="L0-HDV-35" depart="1260.00" from="bottom-approaching" to="bottom-exit" type="L0-HDV-"/>
    <trip id="L0-HDV-36" depart="1296.00" from="right-approaching" to="right-exit" type="L0-HDV-"/>
    <trip id="L0-HDV-37" depart="1332.00" from="left-long-approaching" to="bottom-exit" type="L0-HDV-"/>
    <trip id="L0-HDV-38" depart="1368.00" from="top-approaching" to="top-exit" type="L0-HDV-"/>
    <trip id="L0-HDV-39" depart="1404.00" from="top-approaching" to="top-exit" type="L0-HDV-"/>
    <trip id="L0-HDV-40" depart="1440.00" from="top-approaching" to="top-exit" type="L0-HDV-"/>
    <trip id="L0-HDV-41" depart="1476.00" from="right-approaching" to="left-exit" type="L0-HDV-"/>
    <trip id="L0-HDV-42" depart="1512.00" from="right-approaching" to="left-exit" type="L0-HDV-"/>
    <trip id="L0-HDV-43" depart="1548.00" from="top-approaching" to="top-exit" type="L0-HDV-"/>
    <trip id="L0-HDV-44" depart="1584.00" from="top-approaching" to="right-exit" type="L0-HDV-"/>
    <trip id="L0-HDV-45" depart="1620.00" from="top-approaching" to="right-exit" type="L0-HDV-"/>
    <trip id="L0-HDV-46" depart="1656.00" from="left-long-approaching" to="right-exit" type="L0-HDV-"/>
    <trip id="L0-HDV-47" depart="1692.00" from="top-approaching" to="top-exit" type="L0-HDV-"/>
    <trip id="L0-HDV-48" depart="1728.00" from="top-approaching" to="bottom-exit" type="L0-HDV-"/>
    <trip id="L0-HDV-49" depart="1764.00" from="right-approaching" to="left-exit" type="L0-HDV-"/>
    <trip id="L0-HDV-50" depart="1800.00" from="right-approaching" to="top-exit" type="L0-HDV-"/>
    <trip id="L0-HDV-51" depart="1836.00" from="bottom-approaching" to="right-exit" type="L0-HDV-"/>
    <trip id="L0-HDV-52" depart="1872.00" from="bottom-approaching" to="bottom-exit" type="L0-HDV-"/>
    <trip id="L0-HDV-53" depart="1908.00" from="top-approaching" to="left-exit" type="L0-HDV-"/>
    <trip id="L0-HDV-54" depart="1944.00" from="top-approaching" to="bottom-exit" type="L0-HDV-"/>
    <trip id="L0-HDV-55" depart="1980.00" from="bottom-approaching" to="right-exit" type="L0-HDV-"/>
    <trip id="L0-HDV-56" depart="2016.00" from="bottom-approaching" to="right-exit" type="L0-HDV-"/>
    <trip id="L0-HDV-57" depart="2052.00" from="top-approaching" to="right-exit" type="L0-HDV-"/>
    <trip id="L0-HDV-58" depart="2088.00" from="right-approaching" to="bottom-exit" type="L0-HDV-"/>
    <trip id="L0-HDV-59" depart="2124.00" from="right-approaching" to="right-exit" type="L0-HDV-"/>
    <trip id="L0-HDV-60" depart="2160.00" from="right-approaching" to="left-exit" type="L0-HDV-"/>
    <trip id="L0-HDV-61" depart="2196.00" from="left-long-approaching" to="top-exit" type="L0-HDV-"/>
    <trip id="L0-HDV-62" depart="2232.00" from="bottom-approaching" to="bottom-exit" type="L0-HDV-"/>
    <trip id="L0-HDV-63" depart="2268.00" from="top-approaching" to="bottom-exit" type="L0-HDV-"/>
    <trip id="L0-HDV-64" depart="2304.00" from="bottom-approaching" to="bottom-exit" type="L0-HDV-"/>
    <trip id="L0-HDV-65" depart="2340.00" from="top-approaching" to="top-exit" type="L0-HDV-"/>
    <trip id="L0-HDV-66" depart="2376.00" from="bottom-approaching" to="left-exit" type="L0-HDV-"/>
    <trip id="L0-HDV-67" depart="2412.00" from="bottom-approaching" to="left-exit" type="L0-HDV-"/>
    <trip id="L0-HDV-68" depart="2448.00" from="bottom-approaching" to="right-exit" type="L0-HDV-"/>
    <trip id="L0-HDV-69" depart="2484.00" from="left-long-approaching" to="bottom-exit" type="L0-HDV-"/>
    <trip id="L0-HDV-70" depart="2520.00" from="preparation" to="bottom-exit" type="L0-HDV-"/>
    <trip id="L0-HDV-71" depart="2556.00" from="bottom-approaching" to="top-exit" type="L0-HDV-"/>
    <trip id="L0-HDV-72" depart="2592.00" from="bottom-approaching" to="left-exit" type="L0-HDV-"/>
    <trip id="L0-HDV-73" depart="2628.00" from="right-approaching" to="top-exit" type="L0-HDV-"/>
    <trip id="L0-HDV-74" depart="2664.00" from="top-approaching" to="bottom-exit" type="L0-HDV-"/>
    <trip id="L0-HDV-75" depart="2700.00" from="right-approaching" to="top-exit" type="L0-HDV-"/>
    <trip id="L0-HDV-76" depart="2736.00" from="bottom-approaching" to="right-exit" type="L0-HDV-"/>
    <trip id="L0-HDV-77" depart="2772.00" from="top-approaching" to="left-exit" type="L0-HDV-"/>
    <trip id="L0-HDV-78" depart="2808.00" from="left-long-approaching" to="right-exit" type="L0-HDV-"/>
    <trip id="L0-HDV-79" depart="2844.00" from="left-long-approaching" to="bottom-exit" type="L0-HDV-"/>
    <trip id="L0-HDV-80" depart="2880.00" from="left-long-approaching" to="left-exit" type="L0-HDV-"/>
    <trip id="L0-HDV-81" depart="2916.00" from="right-approaching" to="right-exit" type="L0-HDV-"/>
    <trip id="L0-HDV-82" depart="2952.00" from="left-long-approaching" to="left-exit" type="L0-HDV-"/>
    <trip id="L0-HDV-83" depart="2988.00" from="top-approaching" to="left-exit" type="L0-HDV-"/>
    <trip id="L0-HDV-84" depart="3024.00" from="right-approaching" to="bottom-exit" type="L0-HDV-"/>
    <trip id="L0-HDV-85" depart="3060.00" from="right-approaching" to="left-exit" type="L0-HDV-"/>
    <trip id="L0-HDV-86" depart="3096.00" from="bottom-approaching" to="left-exit" type="L0-HDV-"/>
    <trip id="L0-HDV-87" depart="3132.00" from="bottom-approaching" to="top-exit" type="L0-HDV-"/>
    <trip id="L0-HDV-88" depart="3168.00" from="left-long-approaching" to="left-exit" type="L0-HDV-"/>
    <trip id="L0-HDV-89" depart="3204.00" from="left-long-approaching" to="top-exit" type="L0-HDV-"/>
    <trip id="L0-HDV-90" depart="3240.00" from="right-approaching" to="right-exit" type="L0-HDV-"/>
    <trip id="L0-HDV-91" depart="3276.00" from="right-approaching" to="left-exit" type="L0-HDV-"/>
    <trip id="L0-HDV-92" depart="3312.00" from="left-long-approaching" to="right-exit" type="L0-HDV-"/>
    <trip id="L0-HDV-93" depart="3348.00" from="bottom-approaching" to="bottom-exit" type="L0-HDV-"/>
    <trip id="L0-HDV-94" depart="3384.00" from="left-long-approaching" to="bottom-exit" type="L0-HDV-"/>
    <trip id="L0-HDV-95" depart="3420.00" from="right-approaching" to="left-exit" type="L0-HDV-"/>
    <trip id="L0-HDV-96" depart="3456.00" from="top-approaching" to="right-exit" type="L0-HDV-"/>
    <trip id="L0-HDV-97" depart="3492.00" from="left-long-approaching" to="left-exit" type="L0-HDV-"/>
    <trip id="L0-HDV-98" depart="3528.00" from="right-approaching" to="left-exit" type="L0-HDV-"/>
    <trip id="L0-HDV-99" depart="3564.00" from="right-approaching" to="bottom-exit" type="L0-HDV-"/>
</routes>
