<?xml version="1.0" encoding="UTF-8"?>
<!-- generated on 2021-04-08 12:36:34.549756 by $Id$ v1_8_0+0044-4820708f3d
  options: -n Collision/CollisionIntersection.net.xml <doubleminus>fringe-factor 40 -r Collision/RealTMSPenetration3/Route-Files/L0-HDV-Route.rou.xml <doubleminus>trip-attributes=type="L0-HDV-" -b 120 -l <doubleminus>prefix L0-HDV- <doubleminus>seed 7 -p 11
-->
<routes xmlns:xsi="http://www.w3.org/2001/XMLSchema-instance" xsi:noNamespaceSchemaLocation="http://sumo.dlr.de/xsd/routes_file.xsd">
    <trip id="L0-HDV-0" depart="120.00" from="left-long-approaching" to="bottom-exit" type="L0-HDV-"/>
    <trip id="L0-HDV-1" depart="131.00" from="right-approaching" to="bottom-exit" type="L0-HDV-"/>
    <trip id="L0-HDV-2" depart="142.00" from="right-approaching" to="left-exit" type="L0-HDV-"/>
    <trip id="L0-HDV-3" depart="153.00" from="bottom-approaching" to="right-exit" type="L0-HDV-"/>
    <trip id="L0-HDV-4" depart="164.00" from="bottom-approaching" to="left-exit" type="L0-HDV-"/>
    <trip id="L0-HDV-5" depart="175.00" from="bottom-approaching" to="bottom-exit" type="L0-HDV-"/>
    <trip id="L0-HDV-6" depart="186.00" from="left-long-approaching" to="top-exit" type="L0-HDV-"/>
    <trip id="L0-HDV-7" depart="197.00" from="bottom-approaching" to="bottom-exit" type="L0-HDV-"/>
    <trip id="L0-HDV-8" depart="208.00" from="right-approaching" to="top-exit" type="L0-HDV-"/>
    <trip id="L0-HDV-9" depart="219.00" from="right-approaching" to="left-exit" type="L0-HDV-"/>
    <trip id="L0-HDV-10" depart="230.00" from="top-approaching" to="bottom-exit" type="L0-HDV-"/>
    <trip id="L0-HDV-11" depart="241.00" from="top-approaching" to="left-exit" type="L0-HDV-"/>
    <trip id="L0-HDV-12" depart="252.00" from="bottom-approaching" to="bottom-exit" type="L0-HDV-"/>
    <trip id="L0-HDV-13" depart="263.00" from="left-long-approaching" to="top-exit" type="L0-HDV-"/>
    <trip id="L0-HDV-14" depart="274.00" from="bottom-approaching" to="right-exit" type="L0-HDV-"/>
    <trip id="L0-HDV-15" depart="285.00" from="right-approaching" to="left-exit" type="L0-HDV-"/>
    <trip id="L0-HDV-16" depart="296.00" from="right-approaching" to="bottom-exit" type="L0-HDV-"/>
    <trip id="L0-HDV-17" depart="307.00" from="bottom-approaching" to="bottom-exit" type="L0-HDV-"/>
    <trip id="L0-HDV-18" depart="318.00" from="right-approaching" to="left-exit" type="L0-HDV-"/>
    <trip id="L0-HDV-19" depart="329.00" from="left-long-approaching" to="right-exit" type="L0-HDV-"/>
    <trip id="L0-HDV-20" depart="340.00" from="left-long-approaching" to="left-exit" type="L0-HDV-"/>
    <trip id="L0-HDV-21" depart="351.00" from="top-approaching" to="right-exit" type="L0-HDV-"/>
    <trip id="L0-HDV-22" depart="362.00" from="bottom-approaching" to="right-exit" type="L0-HDV-"/>
    <trip id="L0-HDV-23" depart="373.00" from="right-approaching" to="top-exit" type="L0-HDV-"/>
    <trip id="L0-HDV-24" depart="384.00" from="right-approaching" to="left-exit" type="L0-HDV-"/>
    <trip id="L0-HDV-25" depart="395.00" from="top-approaching" to="bottom-exit" type="L0-HDV-"/>
    <trip id="L0-HDV-26" depart="406.00" from="left-long-approaching" to="top-exit" type="L0-HDV-"/>
    <trip id="L0-HDV-27" depart="417.00" from="bottom-approaching" to="left-exit" type="L0-HDV-"/>
    <trip id="L0-HDV-28" depart="428.00" from="bottom-approaching" to="right-exit" type="L0-HDV-"/>
    <trip id="L0-HDV-29" depart="439.00" from="top-approaching" to="right-exit" type="L0-HDV-"/>
    <trip id="L0-HDV-30" depart="450.00" from="top-approaching" to="left-exit" type="L0-HDV-"/>
    <trip id="L0-HDV-31" depart="461.00" from="right-approaching" to="right-exit" type="L0-HDV-"/>
    <trip id="L0-HDV-32" depart="472.00" from="right-approaching" to="left-exit" type="L0-HDV-"/>
    <trip id="L0-HDV-33" depart="483.00" from="top-approaching" to="top-exit" type="L0-HDV-"/>
    <trip id="L0-HDV-34" depart="494.00" from="left-long-approaching" to="right-exit" type="L0-HDV-"/>
    <trip id="L0-HDV-35" depart="505.00" from="bottom-approaching" to="right-exit" type="L0-HDV-"/>
    <trip id="L0-HDV-36" depart="516.00" from="right-approaching" to="top-exit" type="L0-HDV-"/>
    <trip id="L0-HDV-37" depart="527.00" from="top-approaching" to="left-exit" type="L0-HDV-"/>
    <trip id="L0-HDV-38" depart="538.00" from="left-long-approaching" to="right-exit" type="L0-HDV-"/>
    <trip id="L0-HDV-39" depart="549.00" from="bottom-approaching" to="left-exit" type="L0-HDV-"/>
    <trip id="L0-HDV-40" depart="560.00" from="bottom-approaching" to="bottom-exit" type="L0-HDV-"/>
    <trip id="L0-HDV-41" depart="571.00" from="bottom-approaching" to="top-exit" type="L0-HDV-"/>
    <trip id="L0-HDV-42" depart="582.00" from="bottom-approaching" to="left-exit" type="L0-HDV-"/>
    <trip id="L0-HDV-43" depart="593.00" from="left-long-approaching" to="top-exit" type="L0-HDV-"/>
    <trip id="L0-HDV-44" depart="604.00" from="bottom-approaching" to="left-exit" type="L0-HDV-"/>
    <trip id="L0-HDV-45" depart="615.00" from="right-approaching" to="top-exit" type="L0-HDV-"/>
    <trip id="L0-HDV-46" depart="626.00" from="top-approaching" to="top-exit" type="L0-HDV-"/>
    <trip id="L0-HDV-47" depart="637.00" from="left-long-approaching" to="left-exit" type="L0-HDV-"/>
    <trip id="L0-HDV-48" depart="648.00" from="left-long-approaching" to="top-exit" type="L0-HDV-"/>
    <trip id="L0-HDV-49" depart="659.00" from="top-approaching" to="bottom-exit" type="L0-HDV-"/>
    <trip id="L0-HDV-50" depart="670.00" from="bottom-approaching" to="bottom-exit" type="L0-HDV-"/>
    <trip id="L0-HDV-51" depart="681.00" from="bottom-approaching" to="left-exit" type="L0-HDV-"/>
    <trip id="L0-HDV-52" depart="692.00" from="right-approaching" to="left-exit" type="L0-HDV-"/>
    <trip id="L0-HDV-53" depart="703.00" from="bottom-approaching" to="left-exit" type="L0-HDV-"/>
    <trip id="L0-HDV-54" depart="714.00" from="left-long-approaching" to="right-exit" type="L0-HDV-"/>
    <trip id="L0-HDV-55" depart="725.00" from="top-approaching" to="right-exit" type="L0-HDV-"/>
    <trip id="L0-HDV-56" depart="736.00" from="right-approaching" to="right-exit" type="L0-HDV-"/>
    <trip id="L0-HDV-57" depart="747.00" from="right-approaching" to="bottom-exit" type="L0-HDV-"/>
    <trip id="L0-HDV-58" depart="758.00" from="top-approaching" to="top-exit" type="L0-HDV-"/>
    <trip id="L0-HDV-59" depart="769.00" from="top-approaching" to="top-exit" type="L0-HDV-"/>
    <trip id="L0-HDV-60" depart="780.00" from="left-long-approaching" to="left-exit" type="L0-HDV-"/>
    <trip id="L0-HDV-61" depart="791.00" from="bottom-approaching" to="right-exit" type="L0-HDV-"/>
    <trip id="L0-HDV-62" depart="802.00" from="bottom-approaching" to="bottom-exit" type="L0-HDV-"/>
    <trip id="L0-HDV-63" depart="813.00" from="bottom-approaching" to="bottom-exit" type="L0-HDV-"/>
    <trip id="L0-HDV-64" depart="824.00" from="left-long-approaching" to="bottom-exit" type="L0-HDV-"/>
    <trip id="L0-HDV-65" depart="835.00" from="bottom-approaching" to="bottom-exit" type="L0-HDV-"/>
    <trip id="L0-HDV-66" depart="846.00" from="bottom-approaching" to="left-exit" type="L0-HDV-"/>
    <trip id="L0-HDV-67" depart="857.00" from="bottom-approaching" to="top-exit" type="L0-HDV-"/>
    <trip id="L0-HDV-68" depart="868.00" from="right-approaching" to="bottom-exit" type="L0-HDV-"/>
    <trip id="L0-HDV-69" depart="879.00" from="left-exit-blockage" to="left-exit" type="L0-HDV-"/>
    <trip id="L0-HDV-70" depart="890.00" from="left-long-approaching" to="bottom-exit" type="L0-HDV-"/>
    <trip id="L0-HDV-71" depart="901.00" from="top-approaching" to="top-exit" type="L0-HDV-"/>
    <trip id="L0-HDV-72" depart="912.00" from="left-long-approaching" to="left-exit" type="L0-HDV-"/>
    <trip id="L0-HDV-73" depart="923.00" from="bottom-approaching" to="bottom-exit" type="L0-HDV-"/>
    <trip id="L0-HDV-74" depart="934.00" from="left-long-approaching" to="left-exit" type="L0-HDV-"/>
    <trip id="L0-HDV-75" depart="945.00" from="top-approaching" to="bottom-exit" type="L0-HDV-"/>
    <trip id="L0-HDV-76" depart="956.00" from="bottom-approaching" to="top-exit" type="L0-HDV-"/>
    <trip id="L0-HDV-77" depart="967.00" from="right-approaching" to="bottom-exit" type="L0-HDV-"/>
    <trip id="L0-HDV-78" depart="978.00" from="right-approaching" to="bottom-exit" type="L0-HDV-"/>
    <trip id="L0-HDV-79" depart="989.00" from="right-approaching" to="top-exit" type="L0-HDV-"/>
    <trip id="L0-HDV-80" depart="1000.00" from="top-approaching" to="right-exit" type="L0-HDV-"/>
    <trip id="L0-HDV-81" depart="1011.00" from="left-long-approaching" to="left-exit" type="L0-HDV-"/>
    <trip id="L0-HDV-82" depart="1022.00" from="bottom-approaching" to="top-exit" type="L0-HDV-"/>
    <trip id="L0-HDV-83" depart="1033.00" from="right-approaching" to="top-exit" type="L0-HDV-"/>
    <trip id="L0-HDV-84" depart="1044.00" from="left-long-approaching" to="bottom-exit" type="L0-HDV-"/>
    <trip id="L0-HDV-85" depart="1055.00" from="top-approaching" to="top-exit" type="L0-HDV-"/>
    <trip id="L0-HDV-86" depart="1066.00" from="top-approaching" to="top-exit" type="L0-HDV-"/>
    <trip id="L0-HDV-87" depart="1077.00" from="top-approaching" to="right-exit" type="L0-HDV-"/>
    <trip id="L0-HDV-88" depart="1088.00" from="bottom-approaching" to="right-exit" type="L0-HDV-"/>
    <trip id="L0-HDV-89" depart="1099.00" from="left-long-approaching" to="bottom-exit" type="L0-HDV-"/>
    <trip id="L0-HDV-90" depart="1110.00" from="bottom-approaching" to="left-exit" type="L0-HDV-"/>
    <trip id="L0-HDV-91" depart="1121.00" from="left-long-approaching" to="right-exit" type="L0-HDV-"/>
    <trip id="L0-HDV-92" depart="1132.00" from="top-approaching" to="left-exit" type="L0-HDV-"/>
    <trip id="L0-HDV-93" depart="1143.00" from="top-approaching" to="top-exit" type="L0-HDV-"/>
    <trip id="L0-HDV-94" depart="1154.00" from="top-approaching" to="left-exit" type="L0-HDV-"/>
    <trip id="L0-HDV-95" depart="1165.00" from="bottom-approaching" to="bottom-exit" type="L0-HDV-"/>
    <trip id="L0-HDV-96" depart="1176.00" from="bottom-approaching" to="bottom-exit" type="L0-HDV-"/>
    <trip id="L0-HDV-97" depart="1187.00" from="right-approaching" to="top-exit" type="L0-HDV-"/>
    <trip id="L0-HDV-98" depart="1198.00" from="top-approaching" to="left-exit" type="L0-HDV-"/>
    <trip id="L0-HDV-99" depart="1209.00" from="right-approaching" to="top-exit" type="L0-HDV-"/>
    <trip id="L0-HDV-100" depart="1220.00" from="bottom-approaching" to="right-exit" type="L0-HDV-"/>
    <trip id="L0-HDV-101" depart="1231.00" from="top-approaching" to="top-exit" type="L0-HDV-"/>
    <trip id="L0-HDV-102" depart="1242.00" from="right-approaching" to="left-exit" type="L0-HDV-"/>
    <trip id="L0-HDV-103" depart="1253.00" from="bottom-approaching" to="top-exit" type="L0-HDV-"/>
    <trip id="L0-HDV-104" depart="1264.00" from="left-long-approaching" to="top-exit" type="L0-HDV-"/>
    <trip id="L0-HDV-105" depart="1275.00" from="top-approaching" to="left-exit" type="L0-HDV-"/>
    <trip id="L0-HDV-106" depart="1286.00" from="left-long-approaching" to="top-exit" type="L0-HDV-"/>
    <trip id="L0-HDV-107" depart="1297.00" from="right-approaching" to="bottom-exit" type="L0-HDV-"/>
    <trip id="L0-HDV-108" depart="1308.00" from="bottom-approaching" to="bottom-exit" type="L0-HDV-"/>
    <trip id="L0-HDV-109" depart="1319.00" from="top-approaching" to="top-exit" type="L0-HDV-"/>
    <trip id="L0-HDV-110" depart="1330.00" from="bottom-approaching" to="top-exit" type="L0-HDV-"/>
    <trip id="L0-HDV-111" depart="1341.00" from="top-approaching" to="right-exit" type="L0-HDV-"/>
    <trip id="L0-HDV-112" depart="1352.00" from="left-long-approaching" to="right-exit" type="L0-HDV-"/>
    <trip id="L0-HDV-113" depart="1363.00" from="bottom-approaching" to="bottom-exit" type="L0-HDV-"/>
    <trip id="L0-HDV-114" depart="1374.00" from="top-approaching" to="right-exit" type="L0-HDV-"/>
    <trip id="L0-HDV-115" depart="1385.00" from="right-approaching" to="top-exit" type="L0-HDV-"/>
    <trip id="L0-HDV-116" depart="1396.00" from="left-long-approaching" to="top-exit" type="L0-HDV-"/>
    <trip id="L0-HDV-117" depart="1407.00" from="top-approaching" to="bottom-exit" type="L0-HDV-"/>
    <trip id="L0-HDV-118" depart="1418.00" from="left-exit-blockage" to="left-exit" type="L0-HDV-"/>
    <trip id="L0-HDV-119" depart="1429.00" from="bottom-approaching" to="right-exit" type="L0-HDV-"/>
    <trip id="L0-HDV-120" depart="1440.00" from="left-long-approaching" to="left-exit" type="L0-HDV-"/>
    <trip id="L0-HDV-121" depart="1451.00" from="bottom-approaching" to="top-exit" type="L0-HDV-"/>
    <trip id="L0-HDV-122" depart="1462.00" from="left-long-approaching" to="left-exit" type="L0-HDV-"/>
    <trip id="L0-HDV-123" depart="1473.00" from="right-approaching" to="top-exit" type="L0-HDV-"/>
    <trip id="L0-HDV-124" depart="1484.00" from="left-long-approaching" to="top-exit" type="L0-HDV-"/>
    <trip id="L0-HDV-125" depart="1495.00" from="left-short-approaching" to="right-exit" type="L0-HDV-"/>
    <trip id="L0-HDV-126" depart="1506.00" from="right-approaching" to="bottom-exit" type="L0-HDV-"/>
    <trip id="L0-HDV-127" depart="1517.00" from="left-long-approaching" to="bottom-exit" type="L0-HDV-"/>
    <trip id="L0-HDV-128" depart="1528.00" from="bottom-approaching" to="top-exit" type="L0-HDV-"/>
    <trip id="L0-HDV-129" depart="1539.00" from="bottom-approaching" to="left-exit" type="L0-HDV-"/>
    <trip id="L0-HDV-130" depart="1550.00" from="right-approaching" to="right-exit" type="L0-HDV-"/>
    <trip id="L0-HDV-131" depart="1561.00" from="left-long-approaching" to="right-exit" type="L0-HDV-"/>
    <trip id="L0-HDV-132" depart="1572.00" from="right-approaching" to="top-exit" type="L0-HDV-"/>
    <trip id="L0-HDV-133" depart="1583.00" from="bottom-approaching" to="right-exit" type="L0-HDV-"/>
    <trip id="L0-HDV-134" depart="1594.00" from="left-exit-blockage" to="left-exit" type="L0-HDV-"/>
    <trip id="L0-HDV-135" depart="1605.00" from="top-approaching" to="right-exit" type="L0-HDV-"/>
    <trip id="L0-HDV-136" depart="1616.00" from="right-approaching" to="top-exit" type="L0-HDV-"/>
    <trip id="L0-HDV-137" depart="1627.00" from="top-approaching" to="left-exit" type="L0-HDV-"/>
    <trip id="L0-HDV-138" depart="1638.00" from="right-approaching" to="left-short-approaching" type="L0-HDV-"/>
    <trip id="L0-HDV-139" depart="1649.00" from="right-approaching" to="right-exit" type="L0-HDV-"/>
    <trip id="L0-HDV-140" depart="1660.00" from="left-long-approaching" to="right-exit" type="L0-HDV-"/>
    <trip id="L0-HDV-141" depart="1671.00" from="left-long-approaching" to="top-exit" type="L0-HDV-"/>
    <trip id="L0-HDV-142" depart="1682.00" from="right-approaching" to="top-exit" type="L0-HDV-"/>
    <trip id="L0-HDV-143" depart="1693.00" from="top-approaching" to="left-exit" type="L0-HDV-"/>
    <trip id="L0-HDV-144" depart="1704.00" from="right-approaching" to="top-exit" type="L0-HDV-"/>
    <trip id="L0-HDV-145" depart="1715.00" from="top-approaching" to="bottom-exit" type="L0-HDV-"/>
    <trip id="L0-HDV-146" depart="1726.00" from="bottom-approaching" to="left-exit" type="L0-HDV-"/>
    <trip id="L0-HDV-147" depart="1737.00" from="bottom-approaching" to="bottom-exit" type="L0-HDV-"/>
    <trip id="L0-HDV-148" depart="1748.00" from="bottom-approaching" to="right-exit" type="L0-HDV-"/>
    <trip id="L0-HDV-149" depart="1759.00" from="top-approaching" to="top-exit" type="L0-HDV-"/>
    <trip id="L0-HDV-150" depart="1770.00" from="bottom-approaching" to="right-exit" type="L0-HDV-"/>
    <trip id="L0-HDV-151" depart="1781.00" from="right-approaching" to="bottom-exit" type="L0-HDV-"/>
    <trip id="L0-HDV-152" depart="1792.00" from="top-approaching" to="top-exit" type="L0-HDV-"/>
    <trip id="L0-HDV-153" depart="1803.00" from="bottom-approaching" to="top-exit" type="L0-HDV-"/>
    <trip id="L0-HDV-154" depart="1814.00" from="left-long-approaching" to="left-exit" type="L0-HDV-"/>
    <trip id="L0-HDV-155" depart="1825.00" from="top-approaching" to="top-exit" type="L0-HDV-"/>
    <trip id="L0-HDV-156" depart="1836.00" from="bottom-approaching" to="left-exit" type="L0-HDV-"/>
    <trip id="L0-HDV-157" depart="1847.00" from="right-approaching" to="left-exit" type="L0-HDV-"/>
    <trip id="L0-HDV-158" depart="1858.00" from="bottom-approaching" to="left-exit" type="L0-HDV-"/>
    <trip id="L0-HDV-159" depart="1869.00" from="right-approaching" to="bottom-exit" type="L0-HDV-"/>
    <trip id="L0-HDV-160" depart="1880.00" from="right-approaching" to="left-exit" type="L0-HDV-"/>
    <trip id="L0-HDV-161" depart="1891.00" from="bottom-approaching" to="left-exit" type="L0-HDV-"/>
    <trip id="L0-HDV-162" depart="1902.00" from="right-approaching" to="right-exit" type="L0-HDV-"/>
    <trip id="L0-HDV-163" depart="1913.00" from="bottom-approaching" to="top-exit" type="L0-HDV-"/>
    <trip id="L0-HDV-164" depart="1924.00" from="top-approaching" to="top-exit" type="L0-HDV-"/>
    <trip id="L0-HDV-165" depart="1935.00" from="bottom-approaching" to="left-exit" type="L0-HDV-"/>
    <trip id="L0-HDV-166" depart="1946.00" from="bottom-approaching" to="top-exit" type="L0-HDV-"/>
    <trip id="L0-HDV-167" depart="1957.00" from="left-long-approaching" to="bottom-exit" type="L0-HDV-"/>
    <trip id="L0-HDV-168" depart="1968.00" from="left-long-approaching" to="top-exit" type="L0-HDV-"/>
    <trip id="L0-HDV-169" depart="1979.00" from="top-approaching" to="left-exit" type="L0-HDV-"/>
    <trip id="L0-HDV-170" depart="1990.00" from="bottom-approaching" to="top-exit" type="L0-HDV-"/>
    <trip id="L0-HDV-171" depart="2001.00" from="right-approaching" to="right-exit" type="L0-HDV-"/>
    <trip id="L0-HDV-172" depart="2012.00" from="bottom-approaching" to="bottom-exit" type="L0-HDV-"/>
    <trip id="L0-HDV-173" depart="2023.00" from="right-approaching" to="left-exit" type="L0-HDV-"/>
    <trip id="L0-HDV-174" depart="2034.00" from="bottom-approaching" to="top-exit" type="L0-HDV-"/>
    <trip id="L0-HDV-175" depart="2045.00" from="right-approaching" to="top-exit" type="L0-HDV-"/>
    <trip id="L0-HDV-176" depart="2056.00" from="bottom-approaching" to="top-exit" type="L0-HDV-"/>
    <trip id="L0-HDV-177" depart="2067.00" from="bottom-approaching" to="top-exit" type="L0-HDV-"/>
    <trip id="L0-HDV-178" depart="2078.00" from="left-long-approaching" to="left-exit" type="L0-HDV-"/>
    <trip id="L0-HDV-179" depart="2089.00" from="right-approaching" to="top-exit" type="L0-HDV-"/>
    <trip id="L0-HDV-180" depart="2100.00" from="left-long-approaching" to="bottom-exit" type="L0-HDV-"/>
    <trip id="L0-HDV-181" depart="2111.00" from="right-approaching" to="bottom-exit" type="L0-HDV-"/>
    <trip id="L0-HDV-182" depart="2122.00" from="bottom-approaching" to="bottom-exit" type="L0-HDV-"/>
    <trip id="L0-HDV-183" depart="2133.00" from="bottom-approaching" to="bottom-exit" type="L0-HDV-"/>
    <trip id="L0-HDV-184" depart="2144.00" from="left-long-approaching" to="left-exit" type="L0-HDV-"/>
    <trip id="L0-HDV-185" depart="2155.00" from="top-approaching" to="left-exit" type="L0-HDV-"/>
    <trip id="L0-HDV-186" depart="2166.00" from="left-short-approaching" to="bottom-exit" type="L0-HDV-"/>
    <trip id="L0-HDV-187" depart="2177.00" from="left-long-approaching" to="bottom-exit" type="L0-HDV-"/>
    <trip id="L0-HDV-188" depart="2188.00" from="left-exit-blockage" to="bottom-exit" type="L0-HDV-"/>
    <trip id="L0-HDV-189" depart="2199.00" from="right-approaching" to="right-exit" type="L0-HDV-"/>
    <trip id="L0-HDV-190" depart="2210.00" from="bottom-approaching" to="left-exit" type="L0-HDV-"/>
    <trip id="L0-HDV-191" depart="2221.00" from="top-approaching" to="bottom-exit" type="L0-HDV-"/>
    <trip id="L0-HDV-192" depart="2232.00" from="top-approaching" to="left-exit" type="L0-HDV-"/>
    <trip id="L0-HDV-193" depart="2243.00" from="left-long-approaching" to="top-exit" type="L0-HDV-"/>
    <trip id="L0-HDV-194" depart="2254.00" from="left-long-approaching" to="right-exit" type="L0-HDV-"/>
    <trip id="L0-HDV-195" depart="2265.00" from="right-approaching" to="top-exit" type="L0-HDV-"/>
    <trip id="L0-HDV-196" depart="2276.00" from="left-long-approaching" to="top-exit" type="L0-HDV-"/>
    <trip id="L0-HDV-197" depart="2287.00" from="right-approaching" to="right-exit" type="L0-HDV-"/>
    <trip id="L0-HDV-198" depart="2298.00" from="left-long-approaching" to="left-exit" type="L0-HDV-"/>
    <trip id="L0-HDV-199" depart="2309.00" from="bottom-approaching" to="bottom-exit" type="L0-HDV-"/>
    <trip id="L0-HDV-200" depart="2320.00" from="bottom-approaching" to="right-exit" type="L0-HDV-"/>
    <trip id="L0-HDV-201" depart="2331.00" from="left-long-approaching" to="bottom-exit" type="L0-HDV-"/>
    <trip id="L0-HDV-202" depart="2342.00" from="bottom-approaching" to="top-exit" type="L0-HDV-"/>
    <trip id="L0-HDV-203" depart="2353.00" from="top-approaching" to="right-exit" type="L0-HDV-"/>
    <trip id="L0-HDV-204" depart="2364.00" from="left-long-approaching" to="bottom-exit" type="L0-HDV-"/>
    <trip id="L0-HDV-205" depart="2375.00" from="left-long-approaching" to="left-exit" type="L0-HDV-"/>
    <trip id="L0-HDV-206" depart="2386.00" from="bottom-approaching" to="left-exit" type="L0-HDV-"/>
    <trip id="L0-HDV-207" depart="2397.00" from="left-long-approaching" to="top-exit" type="L0-HDV-"/>
    <trip id="L0-HDV-208" depart="2408.00" from="top-approaching" to="right-exit" type="L0-HDV-"/>
    <trip id="L0-HDV-209" depart="2419.00" from="bottom-approaching" to="top-exit" type="L0-HDV-"/>
    <trip id="L0-HDV-210" depart="2430.00" from="left-long-approaching" to="left-exit" type="L0-HDV-"/>
    <trip id="L0-HDV-211" depart="2441.00" from="bottom-approaching" to="left-exit" type="L0-HDV-"/>
    <trip id="L0-HDV-212" depart="2452.00" from="left-long-approaching" to="left-short-approaching" type="L0-HDV-"/>
    <trip id="L0-HDV-213" depart="2463.00" from="bottom-approaching" to="left-short-approaching" type="L0-HDV-"/>
    <trip id="L0-HDV-214" depart="2474.00" from="bottom-approaching" to="left-exit" type="L0-HDV-"/>
    <trip id="L0-HDV-215" depart="2485.00" from="bottom-approaching" to="left-exit" type="L0-HDV-"/>
    <trip id="L0-HDV-216" depart="2496.00" from="bottom-approaching" to="bottom-exit" type="L0-HDV-"/>
    <trip id="L0-HDV-217" depart="2507.00" from="left-long-approaching" to="bottom-exit" type="L0-HDV-"/>
    <trip id="L0-HDV-218" depart="2518.00" from="right-approaching" to="right-exit" type="L0-HDV-"/>
    <trip id="L0-HDV-219" depart="2529.00" from="right-approaching" to="right-exit" type="L0-HDV-"/>
    <trip id="L0-HDV-220" depart="2540.00" from="right-approaching" to="top-exit" type="L0-HDV-"/>
    <trip id="L0-HDV-221" depart="2551.00" from="left-long-approaching" to="left-exit" type="L0-HDV-"/>
    <trip id="L0-HDV-222" depart="2562.00" from="top-approaching" to="bottom-exit" type="L0-HDV-"/>
    <trip id="L0-HDV-223" depart="2573.00" from="right-approaching" to="right-exit" type="L0-HDV-"/>
    <trip id="L0-HDV-224" depart="2584.00" from="bottom-approaching" to="top-exit" type="L0-HDV-"/>
    <trip id="L0-HDV-225" depart="2595.00" from="top-approaching" to="right-exit" type="L0-HDV-"/>
    <trip id="L0-HDV-226" depart="2606.00" from="right-approaching" to="top-exit" type="L0-HDV-"/>
    <trip id="L0-HDV-227" depart="2617.00" from="bottom-approaching" to="right-exit" type="L0-HDV-"/>
    <trip id="L0-HDV-228" depart="2628.00" from="left-short-approaching" to="top-exit" type="L0-HDV-"/>
    <trip id="L0-HDV-229" depart="2639.00" from="top-approaching" to="top-exit" type="L0-HDV-"/>
    <trip id="L0-HDV-230" depart="2650.00" from="right-approaching" to="top-exit" type="L0-HDV-"/>
    <trip id="L0-HDV-231" depart="2661.00" from="right-approaching" to="right-exit" type="L0-HDV-"/>
    <trip id="L0-HDV-232" depart="2672.00" from="bottom-approaching" to="bottom-exit" type="L0-HDV-"/>
    <trip id="L0-HDV-233" depart="2683.00" from="bottom-approaching" to="left-exit" type="L0-HDV-"/>
    <trip id="L0-HDV-234" depart="2694.00" from="bottom-approaching" to="top-exit" type="L0-HDV-"/>
    <trip id="L0-HDV-235" depart="2705.00" from="right-approaching" to="right-exit" type="L0-HDV-"/>
    <trip id="L0-HDV-236" depart="2716.00" from="right-approaching" to="right-exit" type="L0-HDV-"/>
    <trip id="L0-HDV-237" depart="2727.00" from="left-long-approaching" to="bottom-exit" type="L0-HDV-"/>
    <trip id="L0-HDV-238" depart="2738.00" from="top-approaching" to="right-exit" type="L0-HDV-"/>
    <trip id="L0-HDV-239" depart="2749.00" from="left-short-approaching" to="right-exit" type="L0-HDV-"/>
    <trip id="L0-HDV-240" depart="2760.00" from="right-approaching" to="bottom-exit" type="L0-HDV-"/>
    <trip id="L0-HDV-241" depart="2771.00" from="right-approaching" to="left-exit" type="L0-HDV-"/>
    <trip id="L0-HDV-242" depart="2782.00" from="bottom-approaching" to="left-exit" type="L0-HDV-"/>
    <trip id="L0-HDV-243" depart="2793.00" from="right-approaching" to="bottom-exit" type="L0-HDV-"/>
    <trip id="L0-HDV-244" depart="2804.00" from="right-approaching" to="top-exit" type="L0-HDV-"/>
    <trip id="L0-HDV-245" depart="2815.00" from="left-long-approaching" to="left-exit" type="L0-HDV-"/>
    <trip id="L0-HDV-246" depart="2826.00" from="left-long-approaching" to="right-exit" type="L0-HDV-"/>
    <trip id="L0-HDV-247" depart="2837.00" from="top-approaching" to="right-exit" type="L0-HDV-"/>
    <trip id="L0-HDV-248" depart="2848.00" from="right-approaching" to="bottom-exit" type="L0-HDV-"/>
    <trip id="L0-HDV-249" depart="2859.00" from="bottom-approaching" to="left-exit" type="L0-HDV-"/>
    <trip id="L0-HDV-250" depart="2870.00" from="right-approaching" to="left-exit" type="L0-HDV-"/>
    <trip id="L0-HDV-251" depart="2881.00" from="right-approaching" to="bottom-exit" type="L0-HDV-"/>
    <trip id="L0-HDV-252" depart="2892.00" from="bottom-approaching" to="left-exit" type="L0-HDV-"/>
    <trip id="L0-HDV-253" depart="2903.00" from="right-approaching" to="right-exit" type="L0-HDV-"/>
    <trip id="L0-HDV-254" depart="2914.00" from="right-approaching" to="left-exit" type="L0-HDV-"/>
    <trip id="L0-HDV-255" depart="2925.00" from="right-approaching" to="left-exit" type="L0-HDV-"/>
    <trip id="L0-HDV-256" depart="2936.00" from="left-long-approaching" to="bottom-exit" type="L0-HDV-"/>
    <trip id="L0-HDV-257" depart="2947.00" from="top-approaching" to="bottom-exit" type="L0-HDV-"/>
    <trip id="L0-HDV-258" depart="2958.00" from="top-approaching" to="top-exit" type="L0-HDV-"/>
    <trip id="L0-HDV-259" depart="2969.00" from="bottom-approaching" to="left-exit" type="L0-HDV-"/>
    <trip id="L0-HDV-260" depart="2980.00" from="top-approaching" to="top-exit" type="L0-HDV-"/>
    <trip id="L0-HDV-261" depart="2991.00" from="left-long-approaching" to="left-exit" type="L0-HDV-"/>
    <trip id="L0-HDV-262" depart="3002.00" from="bottom-approaching" to="top-exit" type="L0-HDV-"/>
    <trip id="L0-HDV-263" depart="3013.00" from="bottom-approaching" to="right-exit" type="L0-HDV-"/>
    <trip id="L0-HDV-264" depart="3024.00" from="bottom-approaching" to="right-exit" type="L0-HDV-"/>
    <trip id="L0-HDV-265" depart="3035.00" from="top-approaching" to="bottom-exit" type="L0-HDV-"/>
    <trip id="L0-HDV-266" depart="3046.00" from="top-approaching" to="right-exit" type="L0-HDV-"/>
    <trip id="L0-HDV-267" depart="3057.00" from="top-approaching" to="right-exit" type="L0-HDV-"/>
    <trip id="L0-HDV-268" depart="3068.00" from="bottom-approaching" to="top-exit" type="L0-HDV-"/>
    <trip id="L0-HDV-269" depart="3079.00" from="left-long-approaching" to="bottom-exit" type="L0-HDV-"/>
    <trip id="L0-HDV-270" depart="3090.00" from="bottom-approaching" to="left-exit" type="L0-HDV-"/>
    <trip id="L0-HDV-271" depart="3101.00" from="left-long-approaching" to="left-exit" type="L0-HDV-"/>
    <trip id="L0-HDV-272" depart="3112.00" from="bottom-approaching" to="left-exit" type="L0-HDV-"/>
    <trip id="L0-HDV-273" depart="3123.00" from="left-long-approaching" to="top-exit" type="L0-HDV-"/>
    <trip id="L0-HDV-274" depart="3134.00" from="bottom-approaching" to="right-exit" type="L0-HDV-"/>
    <trip id="L0-HDV-275" depart="3145.00" from="top-approaching" to="bottom-exit" type="L0-HDV-"/>
    <trip id="L0-HDV-276" depart="3156.00" from="top-approaching" to="right-exit" type="L0-HDV-"/>
    <trip id="L0-HDV-277" depart="3167.00" from="top-approaching" to="left-exit" type="L0-HDV-"/>
    <trip id="L0-HDV-278" depart="3178.00" from="left-long-approaching" to="left-exit" type="L0-HDV-"/>
    <trip id="L0-HDV-279" depart="3189.00" from="top-approaching" to="right-exit" type="L0-HDV-"/>
    <trip id="L0-HDV-280" depart="3200.00" from="left-long-approaching" to="left-exit" type="L0-HDV-"/>
    <trip id="L0-HDV-281" depart="3211.00" from="left-long-approaching" to="bottom-exit" type="L0-HDV-"/>
    <trip id="L0-HDV-282" depart="3222.00" from="bottom-approaching" to="top-exit" type="L0-HDV-"/>
    <trip id="L0-HDV-283" depart="3233.00" from="left-long-approaching" to="top-exit" type="L0-HDV-"/>
    <trip id="L0-HDV-284" depart="3244.00" from="left-exit-blockage" to="left-exit" type="L0-HDV-"/>
    <trip id="L0-HDV-285" depart="3255.00" from="right-approaching" to="bottom-exit" type="L0-HDV-"/>
    <trip id="L0-HDV-286" depart="3266.00" from="left-long-approaching" to="top-exit" type="L0-HDV-"/>
    <trip id="L0-HDV-287" depart="3277.00" from="top-approaching" to="top-exit" type="L0-HDV-"/>
    <trip id="L0-HDV-288" depart="3288.00" from="right-approaching" to="top-exit" type="L0-HDV-"/>
    <trip id="L0-HDV-289" depart="3299.00" from="top-approaching" to="right-exit" type="L0-HDV-"/>
    <trip id="L0-HDV-290" depart="3310.00" from="right-approaching" to="bottom-exit" type="L0-HDV-"/>
    <trip id="L0-HDV-291" depart="3321.00" from="right-approaching" to="left-exit" type="L0-HDV-"/>