<?xml version="1.0" encoding="UTF-8"?>
<!-- generated on 2021-03-26 02:00:01.463367 by $Id$ v1_8_0+0044-4820708f3d
  options: -n Roadworks/RoadworksIntersection.net.xml <doubleminus>fringe-factor 40 -r Roadworks/RealTMSPenetration3/Route-Files/L0-HDV-Route.rou.xml <doubleminus>trip-attributes=type="L0-HDV-" -l <doubleminus>prefix L0-HDV- <doubleminus>seed 9 -p 6.2
-->
<routes xmlns:xsi="http://www.w3.org/2001/XMLSchema-instance" xsi:noNamespaceSchemaLocation="http://sumo.dlr.de/xsd/routes_file.xsd">
    <trip id="L0-HDV-0" depart="0.00" from="left-long-approaching" to="left-exit" type="L0-HDV-"/>
    <trip id="L0-HDV-1" depart="6.20" from="bottom-approaching" to="top-exit" type="L0-HDV-"/>
    <trip id="L0-HDV-2" depart="12.40" from="bottom-approaching" to="preparation" type="L0-HDV-"/>
    <trip id="L0-HDV-3" depart="18.60" from="top-approaching" to="bottom-exit" type="L0-HDV-"/>
    <trip id="L0-HDV-4" depart="24.80" from="right-approaching" to="right-exit" type="L0-HDV-"/>
    <trip id="L0-HDV-5" depart="31.00" from="bottom-approaching" to="left-exit" type="L0-HDV-"/>
    <trip id="L0-HDV-6" depart="37.20" from="right-approaching" to="left-exit" type="L0-HDV-"/>
    <trip id="L0-HDV-7" depart="43.40" from="right-approaching" to="bottom-exit" type="L0-HDV-"/>
    <trip id="L0-HDV-8" depart="49.60" from="bottom-approaching" to="bottom-exit" type="L0-HDV-"/>
    <trip id="L0-HDV-9" depart="55.80" from="right-approaching" to="top-exit" type="L0-HDV-"/>
    <trip id="L0-HDV-10" depart="62.00" from="right-approaching" to="top-exit" type="L0-HDV-"/>
    <trip id="L0-HDV-11" depart="68.20" from="left-long-approaching" to="right-exit" type="L0-HDV-"/>
    <trip id="L0-HDV-12" depart="74.40" from="bottom-approaching" to="left-exit" type="L0-HDV-"/>
    <trip id="L0-HDV-13" depart="80.60" from="right-approaching" to="right-exit" type="L0-HDV-"/>
    <trip id="L0-HDV-14" depart="86.80" from="left-long-approaching" to="bottom-exit" type="L0-HDV-"/>
    <trip id="L0-HDV-15" depart="93.00" from="left-long-approaching" to="bottom-exit" type="L0-HDV-"/>
    <trip id="L0-HDV-16" depart="99.20" from="left-long-approaching" to="top-exit" type="L0-HDV-"/>
    <trip id="L0-HDV-17" depart="105.40" from="bottom-approaching" to="top-exit" type="L0-HDV-"/>
    <trip id="L0-HDV-18" depart="111.60" from="top-approaching" to="bottom-exit" type="L0-HDV-"/>
    <trip id="L0-HDV-19" depart="117.80" from="left-long-approaching" to="left-exit" type="L0-HDV-"/>
    <trip id="L0-HDV-20" depart="124.00" from="bottom-approaching" to="left-exit" type="L0-HDV-"/>
    <trip id="L0-HDV-21" depart="130.20" from="top-approaching" to="bottom-exit" type="L0-HDV-"/>
    <trip id="L0-HDV-22" depart="136.40" from="right-approaching" to="bottom-exit" type="L0-HDV-"/>
    <trip id="L0-HDV-23" depart="142.60" from="right-approaching" to="top-exit" type="L0-HDV-"/>
    <trip id="L0-HDV-24" depart="148.80" from="bottom-approaching" to="bottom-exit" type="L0-HDV-"/>
    <trip id="L0-HDV-25" depart="155.00" from="bottom-approaching" to="right-exit" type="L0-HDV-"/>
    <trip id="L0-HDV-26" depart="161.20" from="bottom-approaching" to="bottom-exit" type="L0-HDV-"/>
    <trip id="L0-HDV-27" depart="167.40" from="left-short-approaching" to="top-exit" type="L0-HDV-"/>
    <trip id="L0-HDV-28" depart="173.60" from="left-long-approaching" to="left-exit" type="L0-HDV-"/>
    <trip id="L0-HDV-29" depart="179.80" from="right-approaching" to="bottom-exit" type="L0-HDV-"/>
    <trip id="L0-HDV-30" depart="186.00" from="right-approaching" to="bottom-exit" type="L0-HDV-"/>
    <trip id="L0-HDV-31" depart="192.20" from="right-approaching" to="top-exit" type="L0-HDV-"/>
    <trip id="L0-HDV-32" depart="198.40" from="bottom-approaching" to="right-exit" type="L0-HDV-"/>
    <trip id="L0-HDV-33" depart="204.60" from="right-approaching" to="bottom-exit" type="L0-HDV-"/>
    <trip id="L0-HDV-34" depart="210.80" from="left-long-approaching" to="top-exit" type="L0-HDV-"/>
    <trip id="L0-HDV-35" depart="217.00" from="top-approaching" to="bottom-exit" type="L0-HDV-"/>
    <trip id="L0-HDV-36" depart="223.20" from="right-approaching" to="top-exit" type="L0-HDV-"/>
    <trip id="L0-HDV-37" depart="229.40" from="bottom-approaching" to="right-exit" type="L0-HDV-"/>
    <trip id="L0-HDV-38" depart="235.60" from="bottom-approaching" to="left-exit" type="L0-HDV-"/>
    <trip id="L0-HDV-39" depart="241.80" from="right-approaching" to="right-exit" type="L0-HDV-"/>
    <trip id="L0-HDV-40" depart="248.00" from="top-approaching" to="bottom-exit" type="L0-HDV-"/>
    <trip id="L0-HDV-41" depart="254.20" from="left-long-approaching" to="top-exit" type="L0-HDV-"/>
    <trip id="L0-HDV-42" depart="260.40" from="right-approaching" to="left-exit" type="L0-HDV-"/>
    <trip id="L0-HDV-43" depart="266.60" from="left-long-approaching" to="top-exit" type="L0-HDV-"/>
    <trip id="L0-HDV-44" depart="272.80" from="right-approaching" to="bottom-exit" type="L0-HDV-"/>
    <trip id="L0-HDV-45" depart="279.00" from="top-approaching" to="left-exit" type="L0-HDV-"/>
    <trip id="L0-HDV-46" depart="285.20" from="left-long-approaching" to="bottom-exit" type="L0-HDV-"/>
    <trip id="L0-HDV-47" depart="291.40" from="left-long-approaching" to="left-exit" type="L0-HDV-"/>
    <trip id="L0-HDV-48" depart="297.60" from="bottom-approaching" to="right-exit" type="L0-HDV-"/>
    <trip id="L0-HDV-49" depart="303.80" from="bottom-approaching" to="top-exit" type="L0-HDV-"/>
    <trip id="L0-HDV-50" depart="310.00" from="bottom-approaching" to="top-exit" type="L0-HDV-"/>
    <trip id="L0-HDV-51" depart="316.20" from="top-approaching" to="left-short-approaching" type="L0-HDV-"/>
    <trip id="L0-HDV-52" depart="322.40" from="right-approaching" to="closed-lane" type="L0-HDV-"/>
    <trip id="L0-HDV-53" depart="328.60" from="right-approaching" to="left-exit" type="L0-HDV-"/>
    <trip id="L0-HDV-54" depart="334.80" from="bottom-approaching" to="top-exit" type="L0-HDV-"/>
    <trip id="L0-HDV-55" depart="341.00" from="left-long-approaching" to="left-exit" type="L0-HDV-"/>
    <trip id="L0-HDV-56" depart="347.20" from="top-approaching" to="left-exit" type="L0-HDV-"/>
    <trip id="L0-HDV-57" depart="353.40" from="right-approaching" to="bottom-exit" type="L0-HDV-"/>
    <trip id="L0-HDV-58" depart="359.60" from="top-approaching" to="left-exit" type="L0-HDV-"/>
    <trip id="L0-HDV-59" depart="365.80" from="bottom-approaching" to="top-exit" type="L0-HDV-"/>
    <trip id="L0-HDV-60" depart="372.00" from="bottom-approaching" to="top-exit" type="L0-HDV-"/>
    <trip id="L0-HDV-61" depart="378.20" from="top-approaching" to="right-exit" type="L0-HDV-"/>
    <trip id="L0-HDV-62" depart="384.40" from="bottom-approaching" to="bottom-exit" type="L0-HDV-"/>
    <trip id="L0-HDV-63" depart="390.60" from="bottom-approaching" to="left-exit" type="L0-HDV-"/>
    <trip id="L0-HDV-64" depart="396.80" from="right-approaching" to="top-exit" type="L0-HDV-"/>
    <trip id="L0-HDV-65" depart="403.00" from="left-long-approaching" to="bottom-exit" type="L0-HDV-"/>
    <trip id="L0-HDV-66" depart="409.20" from="right-approaching" to="bottom-exit" type="L0-HDV-"/>
    <trip id="L0-HDV-67" depart="415.40" from="bottom-approaching" to="right-exit" type="L0-HDV-"/>
    <trip id="L0-HDV-68" depart="421.60" from="right-approaching" to="bottom-exit" type="L0-HDV-"/>
    <trip id="L0-HDV-69" depart="427.80" from="left-long-approaching" to="right-exit" type="L0-HDV-"/>
    <trip id="L0-HDV-70" depart="434.00" from="top-approaching" to="left-exit" type="L0-HDV-"/>
    <trip id="L0-HDV-71" depart="440.20" from="top-approaching" to="bottom-exit" type="L0-HDV-"/>
    <trip id="L0-HDV-72" depart="446.40" from="right-approaching" to="top-exit" type="L0-HDV-"/>
    <trip id="L0-HDV-73" depart="452.60" from="top-approaching" to="left-exit" type="L0-HDV-"/>
    <trip id="L0-HDV-74" depart="458.80" from="bottom-approaching" to="bottom-exit" type="L0-HDV-"/>
    <trip id="L0-HDV-75" depart="465.00" from="right-approaching" to="bottom-exit" type="L0-HDV-"/>
    <trip id="L0-HDV-76" depart="471.20" from="right-approaching" to="bottom-exit" type="L0-HDV-"/>
    <trip id="L0-HDV-77" depart="477.40" from="top-approaching" to="bottom-exit" type="L0-HDV-"/>
    <trip id="L0-HDV-78" depart="483.60" from="bottom-approaching" to="bottom-exit" type="L0-HDV-"/>
    <trip id="L0-HDV-79" depart="489.80" from="left-long-approaching" to="right-exit" type="L0-HDV-"/>
    <trip id="L0-HDV-80" depart="496.00" from="left-long-approaching" to="bottom-exit" type="L0-HDV-"/>
    <trip id="L0-HDV-81" depart="502.20" from="left-long-approaching" to="top-exit" type="L0-HDV-"/>
    <trip id="L0-HDV-82" depart="508.40" from="right-approaching" to="top-exit" type="L0-HDV-"/>
    <trip id="L0-HDV-83" depart="514.60" from="bottom-approaching" to="top-exit" type="L0-HDV-"/>
    <trip id="L0-HDV-84" depart="520.80" from="top-approaching" to="right-exit" type="L0-HDV-"/>
    <trip id="L0-HDV-85" depart="527.00" from="right-approaching" to="right-exit" type="L0-HDV-"/>
    <trip id="L0-HDV-86" depart="533.20" from="top-approaching" to="bottom-exit" type="L0-HDV-"/>
    <trip id="L0-HDV-87" depart="539.40" from="right-approaching" to="right-exit" type="L0-HDV-"/>
    <trip id="L0-HDV-88" depart="545.60" from="left-long-approaching" to="right-exit" type="L0-HDV-"/>
    <trip id="L0-HDV-89" depart="551.80" from="right-approaching" to="bottom-exit" type="L0-HDV-"/>
    <trip id="L0-HDV-90" depart="558.00" from="right-approaching" to="left-exit" type="L0-HDV-"/>
    <trip id="L0-HDV-91" depart="564.20" from="left-long-approaching" to="right-exit" type="L0-HDV-"/>
    <trip id="L0-HDV-92" depart="570.40" from="bottom-approaching" to="right-exit" type="L0-HDV-"/>
    <trip id="L0-HDV-93" depart="576.60" from="left-long-approaching" to="top-exit" type="L0-HDV-"/>
    <trip id="L0-HDV-94" depart="582.80" from="bottom-approaching" to="top-exit" type="L0-HDV-"/>
    <trip id="L0-HDV-95" depart="589.00" from="right-approaching" to="right-exit" type="L0-HDV-"/>
    <trip id="L0-HDV-96" depart="595.20" from="top-approaching" to="bottom-exit" type="L0-HDV-"/>
    <trip id="L0-HDV-97" depart="601.40" from="right-approaching" to="right-exit" type="L0-HDV-"/>
    <trip id="L0-HDV-98" depart="607.60" from="right-approaching" to="left-exit" type="L0-HDV-"/>
    <trip id="L0-HDV-99" depart="613.80" from="bottom-approaching" to="bottom-exit" type="L0-HDV-"/>
    <trip id="L0-HDV-100" depart="620.00" from="right-approaching" to="bottom-exit" type="L0-HDV-"/>
    <trip id="L0-HDV-101" depart="626.20" from="bottom-approaching" to="left-exit" type="L0-HDV-"/>
    <trip id="L0-HDV-102" depart="632.40" from="left-long-approaching" to="right-exit" type="L0-HDV-"/>
    <trip id="L0-HDV-103" depart="638.60" from="bottom-approaching" to="top-exit" type="L0-HDV-"/>
    <trip id="L0-HDV-104" depart="644.80" from="left-long-approaching" to="top-exit" type="L0-HDV-"/>
    <trip id="L0-HDV-105" depart="651.00" from="bottom-approaching" to="top-exit" type="L0-HDV-"/>
    <trip id="L0-HDV-106" depart="657.20" from="right-approaching" to="top-exit" type="L0-HDV-"/>
    <trip id="L0-HDV-107" depart="663.40" from="top-approaching" to="top-exit" type="L0-HDV-"/>
    <trip id="L0-HDV-108" depart="669.60" from="bottom-approaching" to="left-exit" type="L0-HDV-"/>
    <trip id="L0-HDV-109" depart="675.80" from="bottom-approaching" to="top-exit" type="L0-HDV-"/>
    <trip id="L0-HDV-110" depart="682.00" from="bottom-approaching" to="bottom-exit" type="L0-HDV-"/>
    <trip id="L0-HDV-111" depart="688.20" from="bottom-approaching" to="bottom-exit" type="L0-HDV-"/>
    <trip id="L0-HDV-112" depart="694.40" from="top-approaching" to="top-exit" type="L0-HDV-"/>
    <trip id="L0-HDV-113" depart="700.60" from="left-long-approaching" to="right-exit" type="L0-HDV-"/>
    <trip id="L0-HDV-114" depart="706.80" from="left-long-approaching" to="right-exit" type="L0-HDV-"/>
    <trip id="L0-HDV-115" depart="713.00" from="left-long-approaching" to="right-exit" type="L0-HDV-"/>
    <trip id="L0-HDV-116" depart="719.20" from="bottom-approaching" to="left-exit" type="L0-HDV-"/>
    <trip id="L0-HDV-117" depart="725.40" from="right-approaching" to="bottom-exit" type="L0-HDV-"/>
    <trip id="L0-HDV-118" depart="731.60" from="left-long-approaching" to="top-exit" type="L0-HDV-"/>
    <trip id="L0-HDV-119" depart="737.80" from="bottom-approaching" to="bottom-exit" type="L0-HDV-"/>
    <trip id="L0-HDV-120" depart="744.00" from="top-approaching" to="bottom-exit" type="L0-HDV-"/>
    <trip id="L0-HDV-121" depart="750.20" from="left-long-approaching" to="top-exit" type="L0-HDV-"/>
    <trip id="L0-HDV-122" depart="756.40" from="right-approaching" to="bottom-exit" type="L0-HDV-"/>
    <trip id="L0-HDV-123" depart="762.60" from="bottom-approaching" to="left-exit" type="L0-HDV-"/>
    <trip id="L0-HDV-124" depart="768.80" from="left-long-approaching" to="top-exit" type="L0-HDV-"/>
    <trip id="L0-HDV-125" depart="775.00" from="top-approaching" to="top-exit" type="L0-HDV-"/>
    <trip id="L0-HDV-126" depart="781.20" from="top-approaching" to="top-exit" type="L0-HDV-"/>
    <trip id="L0-HDV-127" depart="787.40" from="top-approaching" to="top-exit" type="L0-HDV-"/>
    <trip id="L0-HDV-128" depart="793.60" from="top-approaching" to="bottom-exit" type="L0-HDV-"/>
    <trip id="L0-HDV-129" depart="799.80" from="left-long-approaching" to="bottom-exit" type="L0-HDV-"/>
    <trip id="L0-HDV-130" depart="806.00" from="right-approaching" to="left-exit" type="L0-HDV-"/>
    <trip id="L0-HDV-131" depart="812.20" from="left-long-approaching" to="top-exit" type="L0-HDV-"/>
    <trip id="L0-HDV-132" depart="818.40" from="left-long-approaching" to="bottom-exit" type="L0-HDV-"/>
    <trip id="L0-HDV-133" depart="824.60" from="left-long-approaching" to="left-exit" type="L0-HDV-"/>
    <trip id="L0-HDV-134" depart="830.80" from="right-approaching" to="right-exit" type="L0-HDV-"/>
    <trip id="L0-HDV-135" depart="837.00" from="left-long-approaching" to="bottom-exit" type="L0-HDV-"/>
    <trip id="L0-HDV-136" depart="843.20" from="left-long-approaching" to="left-exit" type="L0-HDV-"/>
    <trip id="L0-HDV-137" depart="849.40" from="bottom-approaching" to="right-exit" type="L0-HDV-"/>
    <trip id="L0-HDV-138" depart="855.60" from="bottom-approaching" to="right-exit" type="L0-HDV-"/>
    <trip id="L0-HDV-139" depart="861.80" from="right-approaching" to="bottom-exit" type="L0-HDV-"/>
    <trip id="L0-HDV-140" depart="868.00" from="right-approaching" to="left-exit" type="L0-HDV-"/>
    <trip id="L0-HDV-141" depart="874.20" from="left-long-approaching" to="right-exit" type="L0-HDV-"/>
    <trip id="L0-HDV-142" depart="880.40" from="top-approaching" to="top-exit" type="L0-HDV-"/>
    <trip id="L0-HDV-143" depart="886.60" from="right-approaching" to="bottom-exit" type="L0-HDV-"/>
    <trip id="L0-HDV-144" depart="892.80" from="right-approaching" to="left-exit" type="L0-HDV-"/>
    <trip id="L0-HDV-145" depart="899.00" from="bottom-approaching" to="right-exit" type="L0-HDV-"/>
    <trip id="L0-HDV-146" depart="905.20" from="left-long-approaching" to="top-exit" type="L0-HDV-"/>
    <trip id="L0-HDV-147" depart="911.40" from="left-long-approaching" to="top-exit" type="L0-HDV-"/>
    <trip id="L0-HDV-148" depart="917.60" from="right-approaching" to="bottom-exit" type="L0-HDV-"/>
    <trip id="L0-HDV-149" depart="923.80" from="right-approaching" to="left-exit" type="L0-HDV-"/>
    <trip id="L0-HDV-150" depart="930.00" from="right-approaching" to="bottom-exit" type="L0-HDV-"/>
    <trip id="L0-HDV-151" depart="936.20" from="bottom-approaching" to="top-exit" type="L0-HDV-"/>
    <trip id="L0-HDV-152" depart="942.40" from="bottom-approaching" to="bottom-exit" type="L0-HDV-"/>
    <trip id="L0-HDV-153" depart="948.60" from="bottom-approaching" to="bottom-exit" type="L0-HDV-"/>
    <trip id="L0-HDV-154" depart="954.80" from="top-approaching" to="top-exit" type="L0-HDV-"/>
    <trip id="L0-HDV-155" depart="961.00" from="right-approaching" to="left-exit" type="L0-HDV-"/>
    <trip id="L0-HDV-156" depart="967.20" from="top-approaching" to="right-exit" type="L0-HDV-"/>
    <trip id="L0-HDV-157" depart="973.40" from="bottom-approaching" to="right-exit" type="L0-HDV-"/>
    <trip id="L0-HDV-158" depart="979.60" from="left-long-approaching" to="left-exit" type="L0-HDV-"/>
    <trip id="L0-HDV-159" depart="985.80" from="left-long-approaching" to="left-exit" type="L0-HDV-"/>
    <trip id="L0-HDV-160" depart="992.00" from="bottom-approaching" to="right-exit" type="L0-HDV-"/>
    <trip id="L0-HDV-161" depart="998.20" from="top-approaching" to="right-exit" type="L0-HDV-"/>
    <trip id="L0-HDV-162" depart="1004.40" from="bottom-approaching" to="right-exit" type="L0-HDV-"/>
    <trip id="L0-HDV-163" depart="1010.60" from="bottom-approaching" to="left-exit" type="L0-HDV-"/>
    <trip id="L0-HDV-164" depart="1016.80" from="top-approaching" to="right-exit" type="L0-HDV-"/>
    <trip id="L0-HDV-165" depart="1023.00" from="top-approaching" to="top-exit" type="L0-HDV-"/>
    <trip id="L0-HDV-166" depart="1029.20" from="left-long-approaching" to="bottom-exit" type="L0-HDV-"/>
    <trip id="L0-HDV-167" depart="1035.40" from="left-long-approaching" to="right-exit" type="L0-HDV-"/>
    <trip id="L0-HDV-168" depart="1041.60" from="bottom-approaching" to="left-exit" type="L0-HDV-"/>
    <trip id="L0-HDV-169" depart="1047.80" from="right-approaching" to="left-exit" type="L0-HDV-"/>
    <trip id="L0-HDV-170" depart="1054.00" from="right-approaching" to="right-exit" type="L0-HDV-"/>
    <trip id="L0-HDV-171" depart="1060.20" from="top-approaching" to="bottom-exit" type="L0-HDV-"/>
    <trip id="L0-HDV-172" depart="1066.40" from="bottom-approaching" to="top-exit" type="L0-HDV-"/>
    <trip id="L0-HDV-173" depart="1072.60" from="right-approaching" to="bottom-exit" type="L0-HDV-"/>
    <trip id="L0-HDV-174" depart="1078.80" from="bottom-approaching" to="bottom-exit" type="L0-HDV-"/>
    <trip id="L0-HDV-175" depart="1085.00" from="right-approaching" to="top-exit" type="L0-HDV-"/>
    <trip id="L0-HDV-176" depart="1091.20" from="bottom-approaching" to="bottom-exit" type="L0-HDV-"/>
    <trip id="L0-HDV-177" depart="1097.40" from="right-approaching" to="left-exit" type="L0-HDV-"/>
    <trip id="L0-HDV-178" depart="1103.60" from="top-approaching" to="top-exit" type="L0-HDV-"/>
    <trip id="L0-HDV-179" depart="1109.80" from="top-approaching" to="right-exit" type="L0-HDV-"/>
    <trip id="L0-HDV-180" depart="1116.00" from="left-long-approaching" to="bottom-exit" type="L0-HDV-"/>
    <trip id="L0-HDV-181" depart="1122.20" from="top-approaching" to="left-exit" type="L0-HDV-"/>
    <trip id="L0-HDV-182" depart="1128.40" from="left-long-approaching" to="right-exit" type="L0-HDV-"/>
    <trip id="L0-HDV-183" depart="1134.60" from="top-approaching" to="right-exit" type="L0-HDV-"/>
    <trip id="L0-HDV-184" depart="1140.80" from="top-approaching" to="top-exit" type="L0-HDV-"/>
    <trip id="L0-HDV-185" depart="1147.00" from="bottom-approaching" to="left-exit" type="L0-HDV-"/>
    <trip id="L0-HDV-186" depart="1153.20" from="top-approaching" to="top-exit" type="L0-HDV-"/>
    <trip id="L0-HDV-187" depart="1159.40" from="top-approaching" to="bottom-exit" type="L0-HDV-"/>
    <trip id="L0-HDV-188" depart="1165.60" from="right-approaching" to="top-exit" type="L0-HDV-"/>
    <trip id="L0-HDV-189" depart="1171.80" from="right-approaching" to="right-exit" type="L0-HDV-"/>
    <trip id="L0-HDV-190" depart="1178.00" from="top-approaching" to="bottom-exit" type="L0-HDV-"/>
    <trip id="L0-HDV-191" depart="1184.20" from="bottom-approaching" to="top-exit" type="L0-HDV-"/>
    <trip id="L0-HDV-192" depart="1190.40" from="right-approaching" to="bottom-exit" type="L0-HDV-"/>
    <trip id="L0-HDV-193" depart="1196.60" from="top-approaching" to="left-exit" type="L0-HDV-"/>
    <trip id="L0-HDV-194" depart="1202.80" from="bottom-approaching" to="left-exit" type="L0-HDV-"/>
    <trip id="L0-HDV-195" depart="1209.00" from="bottom-approaching" to="left-exit" type="L0-HDV-"/>
    <trip id="L0-HDV-196" depart="1215.20" from="top-approaching" to="left-exit" type="L0-HDV-"/>
    <trip id="L0-HDV-197" depart="1221.40" from="top-approaching" to="bottom-exit" type="L0-HDV-"/>
    <trip id="L0-HDV-198" depart="1227.60" from="bottom-approaching" to="bottom-exit" type="L0-HDV-"/>
    <trip id="L0-HDV-199" depart="1233.80" from="right-approaching" to="bottom-exit" type="L0-HDV-"/>
    <trip id="L0-HDV-200" depart="1240.00" from="right-approaching" to="right-exit" type="L0-HDV-"/>
    <trip id="L0-HDV-201" depart="1246.20" from="right-approaching" to="top-exit" type="L0-HDV-"/>
    <trip id="L0-HDV-202" depart="1252.40" from="top-approaching" to="top-exit" type="L0-HDV-"/>
    <trip id="L0-HDV-203" depart="1258.60" from="bottom-approaching" to="left-exit" type="L0-HDV-"/>
    <trip id="L0-HDV-204" depart="1264.80" from="top-approaching" to="left-exit" type="L0-HDV-"/>
    <trip id="L0-HDV-205" depart="1271.00" from="left-long-approaching" to="left-exit" type="L0-HDV-"/>
    <trip id="L0-HDV-206" depart="1277.20" from="bottom-approaching" to="top-exit" type="L0-HDV-"/>
    <trip id="L0-HDV-207" depart="1283.40" from="right-approaching" to="bottom-exit" type="L0-HDV-"/>
    <trip id="L0-HDV-208" depart="1289.60" from="top-approaching" to="right-exit" type="L0-HDV-"/>
    <trip id="L0-HDV-209" depart="1295.80" from="left-long-approaching" to="right-exit" type="L0-HDV-"/>
    <trip id="L0-HDV-210" depart="1302.00" from="top-approaching" to="left-exit" type="L0-HDV-"/>
    <trip id="L0-HDV-211" depart="1308.20" from="bottom-approaching" to="bottom-exit" type="L0-HDV-"/>
    <trip id="L0-HDV-212" depart="1314.40" from="bottom-approaching" to="right-exit" type="L0-HDV-"/>
    <trip id="L0-HDV-213" depart="1320.60" from="left-long-approaching" to="top-exit" type="L0-HDV-"/>
    <trip id="L0-HDV-214" depart="1326.80" from="bottom-approaching" to="bottom-exit" type="L0-HDV-"/>
    <trip id="L0-HDV-215" depart="1333.00" from="left-long-approaching" to="bottom-exit" type="L0-HDV-"/>
    <trip id="L0-HDV-216" depart="1339.20" from="left-long-approaching" to="bottom-exit" type="L0-HDV-"/>
    <trip id="L0-HDV-217" depart="1345.40" from="bottom-approaching" to="right-exit" type="L0-HDV-"/>
    <trip id="L0-HDV-218" depart="1351.60" from="top-approaching" to="left-exit" type="L0-HDV-"/>
    <trip id="L0-HDV-219" depart="1357.80" from="right-approaching" to="left-exit" type="L0-HDV-"/>
    <trip id="L0-HDV-220" depart="1364.00" from="top-approaching" to="right-exit" type="L0-HDV-"/>
    <trip id="L0-HDV-221" depart="1370.20" from="bottom-approaching" to="right-exit" type="L0-HDV-"/>
    <trip id="L0-HDV-222" depart="1376.40" from="bottom-approaching" to="bottom-exit" type="L0-HDV-"/>
    <trip id="L0-HDV-223" depart="1382.60" from="bottom-approaching" to="top-exit" type="L0-HDV-"/>
    <trip id="L0-HDV-224" depart="1388.80" from="right-approaching" to="left-exit" type="L0-HDV-"/>
    <trip id="L0-HDV-225" depart="1395.00" from="right-approaching" to="right-exit" type="L0-HDV-"/>
    <trip id="L0-HDV-226" depart="1401.20" from="bottom-approaching" to="right-exit" type="L0-HDV-"/>
    <trip id="L0-HDV-227" depart="1407.40" from="right-approaching" to="top-exit" type="L0-HDV-"/>
    <trip id="L0-HDV-228" depart="1413.60" from="bottom-approaching" to="right-exit" type="L0-HDV-"/>
    <trip id="L0-HDV-229" depart="1419.80" from="right-approaching" to="top-exit" type="L0-HDV-"/>
    <trip id="L0-HDV-230" depart="1426.00" from="left-long-approaching" to="right-exit" type="L0-HDV-"/>
    <trip id="L0-HDV-231" depart="1432.20" from="top-approaching" to="left-exit" type="L0-HDV-"/>
    <trip id="L0-HDV-232" depart="1438.40" from="right-approaching" to="top-exit" type="L0-HDV-"/>
    <trip id="L0-HDV-233" depart="1444.60" from="bottom-approaching" to="top-exit" type="L0-HDV-"/>
    <trip id="L0-HDV-234" depart="1450.80" from="left-long-approaching" to="left-exit" type="L0-HDV-"/>
    <trip id="L0-HDV-235" depart="1457.00" from="left-long-approaching" to="top-exit" type="L0-HDV-"/>
    <trip id="L0-HDV-236" depart="1463.20" from="right-approaching" to="right-exit" type="L0-HDV-"/>
    <trip id="L0-HDV-237" depart="1469.40" from="bottom-approaching" to="top-exit" type="L0-HDV-"/>
    <trip id="L0-HDV-238" depart="1475.60" from="top-approaching" to="right-exit" type="L0-HDV-"/>
    <trip id="L0-HDV-239" depart="1481.80" from="bottom-approaching" to="left-exit" type="L0-HDV-"/>
    <trip id="L0-HDV-240" depart="1488.00" from="left-long-approaching" to="bottom-exit" type="L0-HDV-"/>
    <trip id="L0-HDV-241" depart="1494.20" from="top-approaching" to="left-exit" type="L0-HDV-"/>
    <trip id="L0-HDV-242" depart="1500.40" from="top-approaching" to="bottom-exit" type="L0-HDV-"/>
    <trip id="L0-HDV-243" depart="1506.60" from="right-approaching" to="top-exit" type="L0-HDV-"/>
    <trip id="L0-HDV-244" depart="1512.80" from="right-approaching" to="left-exit" type="L0-HDV-"/>
    <trip id="L0-HDV-245" depart="1519.00" from="bottom-approaching" to="left-exit" type="L0-HDV-"/>
    <trip id="L0-HDV-246" depart="1525.20" from="left-long-approaching" to="top-exit" type="L0-HDV-"/>
    <trip id="L0-HDV-247" depart="1531.40" from="top-approaching" to="top-exit" type="L0-HDV-"/>
    <trip id="L0-HDV-248" depart="1537.60" from="top-approaching" to="bottom-exit" type="L0-HDV-"/>
    <trip id="L0-HDV-249" depart="1543.80" from="bottom-approaching" to="left-exit" type="L0-HDV-"/>
    <trip id="L0-HDV-250" depart="1550.00" from="bottom-approaching" to="bottom-exit" type="L0-HDV-"/>
    <trip id="L0-HDV-251" depart="1556.20" from="right-approaching" to="bottom-exit" type="L0-HDV-"/>
    <trip id="L0-HDV-252" depart="1562.40" from="right-approaching" to="left-exit" type="L0-HDV-"/>
    <trip id="L0-HDV-253" depart="1568.60" from="left-long-approaching" to="top-exit" type="L0-HDV-"/>
    <trip id="L0-HDV-254" depart="1574.80" from="bottom-approaching" to="top-exit" type="L0-HDV-"/>
    <trip id="L0-HDV-255" depart="1581.00" from="right-approaching" to="right-exit" type="L0-HDV-"/>
    <trip id="L0-HDV-256" depart="1587.20" from="bottom-approaching" to="right-exit" type="L0-HDV-"/>
    <trip id="L0-HDV-257" depart="1593.40" from="top-approaching" to="bottom-exit" type="L0-HDV-"/>
    <trip id="L0-HDV-258" depart="1599.60" from="left-long-approaching" to="right-exit" type="L0-HDV-"/>
    <trip id="L0-HDV-259" depart="1605.80" from="left-long-approaching" to="right-exit" type="L0-HDV-"/>
    <trip id="L0-HDV-260" depart="1612.00" from="right-approaching" to="left-exit" type="L0-HDV-"/>
    <trip id="L0-HDV-261" depart="1618.20" from="right-approaching" to="top-exit" type="L0-HDV-"/>
    <trip id="L0-HDV-262" depart="1624.40" from="left-long-approaching" to="right-exit" type="L0-HDV-"/>
    <trip id="L0-HDV-263" depart="1630.60" from="right-approaching" to="left-exit" type="L0-HDV-"/>
    <trip id="L0-HDV-264" depart="1636.80" from="bottom-approaching" to="left-exit" type="L0-HDV-"/>
    <trip id="L0-HDV-265" depart="1643.00" from="top-approaching" to="right-exit" type="L0-HDV-"/>
    <trip id="L0-HDV-266" depart="1649.20" from="bottom-approaching" to="left-exit" type="L0-HDV-"/>
    <trip id="L0-HDV-267" depart="1655.40" from="right-approaching" to="right-exit" type="L0-HDV-"/>
    <trip id="L0-HDV-268" depart="1661.60" from="bottom-approaching" to="right-exit" type="L0-HDV-"/>
    <trip id="L0-HDV-269" depart="1667.80" from="right-approaching" to="right-exit" type="L0-HDV-"/>
    <trip id="L0-HDV-270" depart="1674.00" from="top-approaching" to="right-exit" type="L0-HDV-"/>
    <trip id="L0-HDV-271" depart="1680.20" from="bottom-approaching" to="left-exit" type="L0-HDV-"/>
    <trip id="L0-HDV-272" depart="1686.40" from="right-approaching" to="bottom-exit" type="L0-HDV-"/>
    <trip id="L0-HDV-273" depart="1692.60" from="top-approaching" to="right-exit" type="L0-HDV-"/>
    <trip id="L0-HDV-274" depart="1698.80" from="top-approaching" to="bottom-exit" type="L0-HDV-"/>
    <trip id="L0-HDV-275" depart="1705.00" from="bottom-approaching" to="top-exit" type="L0-HDV-"/>
    <trip id="L0-HDV-276" depart="1711.20" from="right-approaching" to="left-exit" type="L0-HDV-"/>
    <trip id="L0-HDV-277" depart="1717.40" from="right-approaching" to="top-exit" type="L0-HDV-"/>
    <trip id="L0-HDV-278" depart="1723.60" from="left-long-approaching" to="top-exit" type="L0-HDV-"/>
    <trip id="L0-HDV-279" depart="1729.80" from="bottom-approaching" to="top-exit" type="L0-HDV-"/>
    <trip id="L0-HDV-280" depart="1736.00" from="right-approaching" to="left-exit" type="L0-HDV-"/>
    <trip id="L0-HDV-281" depart="1742.20" from="left-long-approaching" to="top-exit" type="L0-HDV-"/>
    <trip id="L0-HDV-282" depart="1748.40" from="left-long-approaching" to="right-exit" type="L0-HDV-"/>
    <trip id="L0-HDV-283" depart="1754.60" from="top-approaching" to="top-exit" type="L0-HDV-"/>
    <trip id="L0-HDV-284" depart="1760.80" from="left-long-approaching" to="top-exit" type="L0-HDV-"/>
    <trip id="L0-HDV-285" depart="1767.00" from="right-approaching" to="top-exit" type="L0-HDV-"/>
    <trip id="L0-HDV-286" depart="1773.20" from="bottom-approaching" to="left-exit" type="L0-HDV-"/>
    <trip id="L0-HDV-287" depart="1779.40" from="left-long-approaching" to="top-exit" type="L0-HDV-"/>
    <trip id="L0-HDV-288" depart="1785.60" from="left-long-approaching" to="bottom-exit" type="L0-HDV-"/>
    <trip id="L0-HDV-289" depart="1791.80" from="bottom-approaching" to="top-exit" type="L0-HDV-"/>
    <trip id="L0-HDV-290" depart="1798.00" from="top-approaching" to="right-exit" type="L0-HDV-"/>
    <trip id="L0-HDV-291" depart="1804.20" from="bottom-approaching" to="top-exit" type="L0-HDV-"/>
    <trip id="L0-HDV-292" depart="1810.40" from="top-approaching" to="left-exit" type="L0-HDV-"/>
    <trip id="L0-HDV-293" depart="1816.60" from="left-long-approaching" to="left-exit" type="L0-HDV-"/>