<?xml version="1.0" encoding="UTF-8"?>
<!-- generated on 2021-04-10 15:33:07.864507 by $Id$ v1_8_0+0044-4820708f3d
  options: -n Roadworks/RoadworksIntersection.net.xml <doubleminus>fringe-factor 40 -r Roadworks/BaselineHDV/Route-Files/L0-HDV-Route.rou.xml <doubleminus>trip-attributes=type="L0-HDV-" -l <doubleminus>prefix L0-HDV- <doubleminus>seed 6 -p 1.07
-->
<routes xmlns:xsi="http://www.w3.org/2001/XMLSchema-instance" xsi:noNamespaceSchemaLocation="http://sumo.dlr.de/xsd/routes_file.xsd">
    <trip id="L0-HDV-0" depart="0.00" from="top-approaching" to="top-exit" type="L0-HDV-"/>
    <trip id="L0-HDV-1" depart="1.07" from="left-long-approaching" to="left-exit" type="L0-HDV-"/>
    <trip id="L0-HDV-2" depart="2.14" from="bottom-approaching" to="right-exit" type="L0-HDV-"/>
    <trip id="L0-HDV-3" depart="3.21" from="left-long-approaching" to="top-exit" type="L0-HDV-"/>
    <trip id="L0-HDV-4" depart="4.28" from="left-long-approaching" to="top-exit" type="L0-HDV-"/>
    <trip id="L0-HDV-5" depart="5.35" from="left-long-approaching" to="top-exit" type="L0-HDV-"/>
    <trip id="L0-HDV-6" depart="6.42" from="right-approaching" to="left-exit" type="L0-HDV-"/>
    <trip id="L0-HDV-7" depart="7.49" from="right-approaching" to="right-exit" type="L0-HDV-"/>
    <trip id="L0-HDV-8" depart="8.56" from="bottom-approaching" to="right-exit" type="L0-HDV-"/>
    <trip id="L0-HDV-9" depart="9.63" from="top-approaching" to="left-exit" type="L0-HDV-"/>
    <trip id="L0-HDV-10" depart="10.70" from="top-approaching" to="right-exit" type="L0-HDV-"/>
    <trip id="L0-HDV-11" depart="11.77" from="top-approaching" to="left-exit" type="L0-HDV-"/>
    <trip id="L0-HDV-12" depart="12.84" from="bottom-approaching" to="top-exit" type="L0-HDV-"/>
    <trip id="L0-HDV-13" depart="13.91" from="top-approaching" to="left-exit" type="L0-HDV-"/>
    <trip id="L0-HDV-14" depart="14.98" from="bottom-approaching" to="bottom-exit" type="L0-HDV-"/>
    <trip id="L0-HDV-15" depart="16.05" from="right-approaching" to="left-exit" type="L0-HDV-"/>
    <trip id="L0-HDV-16" depart="17.12" from="top-approaching" to="right-exit" type="L0-HDV-"/>
    <trip id="L0-HDV-17" depart="18.19" from="bottom-approaching" to="right-exit" type="L0-HDV-"/>
    <trip id="L0-HDV-18" depart="19.26" from="left-long-approaching" to="top-exit" type="L0-HDV-"/>
    <trip id="L0-HDV-19" depart="20.33" from="top-approaching" to="right-exit" type="L0-HDV-"/>
    <trip id="L0-HDV-20" depart="21.40" from="right-approaching" to="right-exit" type="L0-HDV-"/>
    <trip id="L0-HDV-21" depart="22.47" from="top-approaching" to="top-exit" type="L0-HDV-"/>
    <trip id="L0-HDV-22" depart="23.54" from="bottom-approaching" to="left-exit" type="L0-HDV-"/>
    <trip id="L0-HDV-23" depart="24.61" from="right-approaching" to="left-exit" type="L0-HDV-"/>
    <trip id="L0-HDV-24" depart="25.68" from="right-approaching" to="bottom-exit" type="L0-HDV-"/>
    <trip id="L0-HDV-25" depart="26.75" from="top-approaching" to="right-exit" type="L0-HDV-"/>
    <trip id="L0-HDV-26" depart="27.82" from="bottom-approaching" to="right-exit" type="L0-HDV-"/>
    <trip id="L0-HDV-27" depart="28.89" from="left-long-approaching" to="bottom-exit" type="L0-HDV-"/>
    <trip id="L0-HDV-28" depart="29.96" from="left-long-approaching" to="bottom-exit" type="L0-HDV-"/>
    <trip id="L0-HDV-29" depart="31.03" from="bottom-approaching" to="top-exit" type="L0-HDV-"/>
    <trip id="L0-HDV-30" depart="32.10" from="right-approaching" to="bottom-exit" type="L0-HDV-"/>
    <trip id="L0-HDV-31" depart="33.17" from="top-approaching" to="bottom-exit" type="L0-HDV-"/>
    <trip id="L0-HDV-32" depart="34.24" from="left-long-approaching" to="top-exit" type="L0-HDV-"/>
    <trip id="L0-HDV-33" depart="35.31" from="right-approaching" to="left-exit" type="L0-HDV-"/>
    <trip id="L0-HDV-34" depart="36.38" from="left-long-approaching" to="left-exit" type="L0-HDV-"/>
    <trip id="L0-HDV-35" depart="37.45" from="bottom-approaching" to="top-exit" type="L0-HDV-"/>
    <trip id="L0-HDV-36" depart="38.52" from="bottom-approaching" to="left-exit" type="L0-HDV-"/>
    <trip id="L0-HDV-37" depart="39.59" from="right-approaching" to="left-exit" type="L0-HDV-"/>
    <trip id="L0-HDV-38" depart="40.66" from="top-approaching" to="bottom-exit" type="L0-HDV-"/>
    <trip id="L0-HDV-39" depart="41.73" from="top-approaching" to="top-exit" type="L0-HDV-"/>
    <trip id="L0-HDV-40" depart="42.80" from="right-approaching" to="top-exit" type="L0-HDV-"/>
    <trip id="L0-HDV-41" depart="43.87" from="left-long-approaching" to="top-exit" type="L0-HDV-"/>
    <trip id="L0-HDV-42" depart="44.94" from="top-approaching" to="right-exit" type="L0-HDV-"/>
    <trip id="L0-HDV-43" depart="46.01" from="left-long-approaching" to="right-exit" type="L0-HDV-"/>
    <trip id="L0-HDV-44" depart="47.08" from="left-long-approaching" to="bottom-exit" type="L0-HDV-"/>
    <trip id="L0-HDV-45" depart="48.15" from="right-approaching" to="left-exit" type="L0-HDV-"/>
    <trip id="L0-HDV-46" depart="49.22" from="left-long-approaching" to="top-exit" type="L0-HDV-"/>
    <trip id="L0-HDV-47" depart="50.29" from="bottom-approaching" to="bottom-exit" type="L0-HDV-"/>
    <trip id="L0-HDV-48" depart="51.36" from="bottom-approaching" to="right-exit" type="L0-HDV-"/>
    <trip id="L0-HDV-49" depart="52.43" from="left-long-approaching" to="left-exit" type="L0-HDV-"/>
    <trip id="L0-HDV-50" depart="53.50" from="left-long-approaching" to="top-exit" type="L0-HDV-"/>
    <trip id="L0-HDV-51" depart="54.57" from="left-long-approaching" to="left-exit" type="L0-HDV-"/>
    <trip id="L0-HDV-52" depart="55.64" from="top-approaching" to="right-exit" type="L0-HDV-"/>
    <trip id="L0-HDV-53" depart="56.71" from="left-long-approaching" to="left-exit" type="L0-HDV-"/>
    <trip id="L0-HDV-54" depart="57.78" from="left-long-approaching" to="bottom-exit" type="L0-HDV-"/>
    <trip id="L0-HDV-55" depart="58.85" from="left-long-approaching" to="left-exit" type="L0-HDV-"/>
    <trip id="L0-HDV-56" depart="59.92" from="top-approaching" to="left-exit" type="L0-HDV-"/>
    <trip id="L0-HDV-57" depart="60.99" from="right-approaching" to="top-exit" type="L0-HDV-"/>
    <trip id="L0-HDV-58" depart="62.06" from="top-approaching" to="left-exit" type="L0-HDV-"/>
    <trip id="L0-HDV-59" depart="63.13" from="right-approaching" to="left-exit" type="L0-HDV-"/>
    <trip id="L0-HDV-60" depart="64.20" from="left-long-approaching" to="left-exit" type="L0-HDV-"/>
    <trip id="L0-HDV-61" depart="65.27" from="top-approaching" to="top-exit" type="L0-HDV-"/>
    <trip id="L0-HDV-62" depart="66.34" from="left-long-approaching" to="bottom-exit" type="L0-HDV-"/>
    <trip id="L0-HDV-63" depart="67.41" from="left-long-approaching" to="bottom-exit" type="L0-HDV-"/>
    <trip id="L0-HDV-64" depart="68.48" from="bottom-approaching" to="top-exit" type="L0-HDV-"/>
    <trip id="L0-HDV-65" depart="69.55" from="bottom-approaching" to="right-exit" type="L0-HDV-"/>
    <trip id="L0-HDV-66" depart="70.62" from="left-long-approaching" to="top-exit" type="L0-HDV-"/>
    <trip id="L0-HDV-67" depart="71.69" from="top-approaching" to="bottom-exit" type="L0-HDV-"/>
    <trip id="L0-HDV-68" depart="72.76" from="bottom-approaching" to="top-exit" type="L0-HDV-"/>
    <trip id="L0-HDV-69" depart="73.83" from="right-approaching" to="left-exit" type="L0-HDV-"/>
    <trip id="L0-HDV-70" depart="74.90" from="top-approaching" to="top-exit" type="L0-HDV-"/>
    <trip id="L0-HDV-71" depart="75.97" from="left-long-approaching" to="left-exit" type="L0-HDV-"/>
    <trip id="L0-HDV-72" depart="77.04" from="bottom-approaching" to="left-exit" type="L0-HDV-"/>
    <trip id="L0-HDV-73" depart="78.11" from="bottom-approaching" to="right-exit" type="L0-HDV-"/>
    <trip id="L0-HDV-74" depart="79.18" from="right-approaching" to="bottom-exit" type="L0-HDV-"/>
    <trip id="L0-HDV-75" depart="80.25" from="right-approaching" to="bottom-exit" type="L0-HDV-"/>
    <trip id="L0-HDV-76" depart="81.32" from="bottom-approaching" to="right-exit" type="L0-HDV-"/>
    <trip id="L0-HDV-77" depart="82.39" from="left-long-approaching" to="top-exit" type="L0-HDV-"/>
    <trip id="L0-HDV-78" depart="83.46" from="right-approaching" to="right-exit" type="L0-HDV-"/>
    <trip id="L0-HDV-79" depart="84.53" from="bottom-approaching" to="top-exit" type="L0-HDV-"/>
    <trip id="L0-HDV-80" depart="85.60" from="bottom-approaching" to="right-exit" type="L0-HDV-"/>
    <trip id="L0-HDV-81" depart="86.67" from="top-approaching" to="top-exit" type="L0-HDV-"/>
    <trip id="L0-HDV-82" depart="87.74" from="top-approaching" to="left-exit" type="L0-HDV-"/>
    <trip id="L0-HDV-83" depart="88.81" from="right-approaching" to="top-exit" type="L0-HDV-"/>
    <trip id="L0-HDV-84" depart="89.88" from="bottom-approaching" to="top-exit" type="L0-HDV-"/>
    <trip id="L0-HDV-85" depart="90.95" from="top-approaching" to="left-exit" type="L0-HDV-"/>
    <trip id="L0-HDV-86" depart="92.02" from="top-approaching" to="left-exit" type="L0-HDV-"/>
    <trip id="L0-HDV-87" depart="93.09" from="left-long-approaching" to="right-exit" type="L0-HDV-"/>
    <trip id="L0-HDV-88" depart="94.16" from="bottom-approaching" to="top-exit" type="L0-HDV-"/>
    <trip id="L0-HDV-89" depart="95.23" from="top-approaching" to="left-exit" type="L0-HDV-"/>
    <trip id="L0-HDV-90" depart="96.30" from="top-approaching" to="bottom-exit" type="L0-HDV-"/>
    <trip id="L0-HDV-91" depart="97.37" from="top-approaching" to="left-exit" type="L0-HDV-"/>
    <trip id="L0-HDV-92" depart="98.44" from="top-approaching" to="left-exit" type="L0-HDV-"/>
    <trip id="L0-HDV-93" depart="99.51" from="top-approaching" to="bottom-exit" type="L0-HDV-"/>
    <trip id="L0-HDV-94" depart="100.58" from="bottom-approaching" to="top-exit" type="L0-HDV-"/>
    <trip id="L0-HDV-95" depart="101.65" from="right-approaching" to="right-exit" type="L0-HDV-"/>
    <trip id="L0-HDV-96" depart="102.72" from="bottom-approaching" to="bottom-exit" type="L0-HDV-"/>
    <trip id="L0-HDV-97" depart="103.79" from="left-long-approaching" to="bottom-exit" type="L0-HDV-"/>
    <trip id="L0-HDV-98" depart="104.86" from="top-approaching" to="top-exit" type="L0-HDV-"/>
    <trip id="L0-HDV-99" depart="105.93" from="top-approaching" to="right-exit" type="L0-HDV-"/>
    <trip id="L0-HDV-100" depart="107.00" from="left-long-approaching" to="bottom-exit" type="L0-HDV-"/>
    <trip id="L0-HDV-101" depart="108.07" from="right-approaching" to="bottom-exit" type="L0-HDV-"/>
    <trip id="L0-HDV-102" depart="109.14" from="right-approaching" to="left-exit" type="L0-HDV-"/>
    <trip id="L0-HDV-103" depart="110.21" from="left-long-approaching" to="bottom-exit" type="L0-HDV-"/>
    <trip id="L0-HDV-104" depart="111.28" from="bottom-approaching" to="right-exit" type="L0-HDV-"/>
    <trip id="L0-HDV-105" depart="112.35" from="bottom-approaching" to="right-exit" type="L0-HDV-"/>
    <trip id="L0-HDV-106" depart="113.42" from="bottom-approaching" to="left-exit" type="L0-HDV-"/>
    <trip id="L0-HDV-107" depart="114.49" from="bottom-approaching" to="right-exit" type="L0-HDV-"/>
    <trip id="L0-HDV-108" depart="115.56" from="left-long-approaching" to="bottom-exit" type="L0-HDV-"/>
    <trip id="L0-HDV-109" depart="116.63" from="bottom-approaching" to="right-exit" type="L0-HDV-"/>
    <trip id="L0-HDV-110" depart="117.70" from="top-approaching" to="left-exit" type="L0-HDV-"/>
    <trip id="L0-HDV-111" depart="118.77" from="bottom-approaching" to="left-exit" type="L0-HDV-"/>
    <trip id="L0-HDV-112" depart="119.84" from="bottom-approaching" to="right-exit" type="L0-HDV-"/>
    <trip id="L0-HDV-113" depart="120.91" from="top-approaching" to="right-exit" type="L0-HDV-"/>
    <trip id="L0-HDV-114" depart="121.98" from="bottom-approaching" to="left-exit" type="L0-HDV-"/>
    <trip id="L0-HDV-115" depart="123.05" from="left-long-approaching" to="left-exit" type="L0-HDV-"/>
    <trip id="L0-HDV-116" depart="124.12" from="left-long-approaching" to="top-exit" type="L0-HDV-"/>
    <trip id="L0-HDV-117" depart="125.19" from="right-approaching" to="right-exit" type="L0-HDV-"/>
    <trip id="L0-HDV-118" depart="126.26" from="right-approaching" to="right-exit" type="L0-HDV-"/>
    <trip id="L0-HDV-119" depart="127.33" from="top-approaching" to="left-exit" type="L0-HDV-"/>
    <trip id="L0-HDV-120" depart="128.40" from="right-approaching" to="top-exit" type="L0-HDV-"/>
    <trip id="L0-HDV-121" depart="129.47" from="bottom-approaching" to="right-exit" type="L0-HDV-"/>
    <trip id="L0-HDV-122" depart="130.54" from="left-long-approaching" to="bottom-exit" type="L0-HDV-"/>
    <trip id="L0-HDV-123" depart="131.61" from="bottom-approaching" to="top-exit" type="L0-HDV-"/>
    <trip id="L0-HDV-124" depart="132.68" from="bottom-approaching" to="right-exit" type="L0-HDV-"/>
    <trip id="L0-HDV-125" depart="133.75" from="bottom-approaching" to="left-exit" type="L0-HDV-"/>
    <trip id="L0-HDV-126" depart="134.82" from="bottom-approaching" to="right-exit" type="L0-HDV-"/>
    <trip id="L0-HDV-127" depart="135.89" from="top-approaching" to="bottom-exit" type="L0-HDV-"/>
    <trip id="L0-HDV-128" depart="136.96" from="right-approaching" to="top-exit" type="L0-HDV-"/>
    <trip id="L0-HDV-129" depart="138.03" from="left-long-approaching" to="left-exit" type="L0-HDV-"/>
    <trip id="L0-HDV-130" depart="139.10" from="right-approaching" to="top-exit" type="L0-HDV-"/>
    <trip id="L0-HDV-131" depart="140.17" from="bottom-approaching" to="right-exit" type="L0-HDV-"/>
    <trip id="L0-HDV-132" depart="141.24" from="bottom-approaching" to="bottom-exit" type="L0-HDV-"/>
    <trip id="L0-HDV-133" depart="142.31" from="top-approaching" to="bottom-exit" type="L0-HDV-"/>
    <trip id="L0-HDV-134" depart="143.38" from="top-approaching" to="right-exit" type="L0-HDV-"/>
    <trip id="L0-HDV-135" depart="144.45" from="right-approaching" to="right-exit" type="L0-HDV-"/>
    <trip id="L0-HDV-136" depart="145.52" from="right-approaching" to="left-exit" type="L0-HDV-"/>
    <trip id="L0-HDV-137" depart="146.59" from="left-long-approaching" to="bottom-exit" type="L0-HDV-"/>
    <trip id="L0-HDV-138" depart="147.66" from="top-approaching" to="top-exit" type="L0-HDV-"/>
    <trip id="L0-HDV-139" depart="148.73" from="top-approaching" to="bottom-exit" type="L0-HDV-"/>
    <trip id="L0-HDV-140" depart="149.80" from="right-approaching" to="left-exit" type="L0-HDV-"/>
    <trip id="L0-HDV-141" depart="150.87" from="top-approaching" to="right-exit" type="L0-HDV-"/>
    <trip id="L0-HDV-142" depart="151.94" from="top-approaching" to="right-exit" type="L0-HDV-"/>
    <trip id="L0-HDV-143" depart="153.01" from="right-approaching" to="top-exit" type="L0-HDV-"/>
    <trip id="L0-HDV-144" depart="154.08" from="bottom-approaching" to="right-exit" type="L0-HDV-"/>
    <trip id="L0-HDV-145" depart="155.15" from="bottom-approaching" to="left-exit" type="L0-HDV-"/>
    <trip id="L0-HDV-146" depart="156.22" from="bottom-approaching" to="top-exit" type="L0-HDV-"/>
    <trip id="L0-HDV-147" depart="157.29" from="bottom-approaching" to="top-exit" type="L0-HDV-"/>
    <trip id="L0-HDV-148" depart="158.36" from="top-approaching" to="left-exit" type="L0-HDV-"/>
    <trip id="L0-HDV-149" depart="159.43" from="top-approaching" to="bottom-exit" type="L0-HDV-"/>
    <trip id="L0-HDV-150" depart="160.50" from="bottom-approaching" to="bottom-exit" type="L0-HDV-"/>
    <trip id="L0-HDV-151" depart="161.57" from="bottom-approaching" to="bottom-exit" type="L0-HDV-"/>
    <trip id="L0-HDV-152" depart="162.64" from="top-approaching" to="bottom-exit" type="L0-HDV-"/>
    <trip id="L0-HDV-153" depart="163.71" from="right-approaching" to="left-exit" type="L0-HDV-"/>
    <trip id="L0-HDV-154" depart="164.78" from="bottom-approaching" to="left-exit" type="L0-HDV-"/>
    <trip id="L0-HDV-155" depart="165.85" from="bottom-approaching" to="top-exit" type="L0-HDV-"/>
    <trip id="L0-HDV-156" depart="166.92" from="left-long-approaching" to="right-exit" type="L0-HDV-"/>
    <trip id="L0-HDV-157" depart="167.99" from="right-approaching" to="right-exit" type="L0-HDV-"/>
    <trip id="L0-HDV-158" depart="169.06" from="left-long-approaching" to="left-exit" type="L0-HDV-"/>
    <trip id="L0-HDV-159" depart="170.13" from="bottom-approaching" to="top-exit" type="L0-HDV-"/>
    <trip id="L0-HDV-160" depart="171.20" from="bottom-approaching" to="left-exit" type="L0-HDV-"/>
    <trip id="L0-HDV-161" depart="172.27" from="top-approaching" to="right-exit" type="L0-HDV-"/>
    <trip id="L0-HDV-162" depart="173.34" from="top-approaching" to="top-exit" type="L0-HDV-"/>
    <trip id="L0-HDV-163" depart="174.41" from="right-approaching" to="bottom-exit" type="L0-HDV-"/>
    <trip id="L0-HDV-164" depart="175.48" from="right-approaching" to="left-exit" type="L0-HDV-"/>
    <trip id="L0-HDV-165" depart="176.55" from="top-approaching" to="right-exit" type="L0-HDV-"/>
    <trip id="L0-HDV-166" depart="177.62" from="right-approaching" to="top-exit" type="L0-HDV-"/>
    <trip id="L0-HDV-167" depart="178.69" from="left-long-approaching" to="top-exit" type="L0-HDV-"/>
    <trip id="L0-HDV-168" depart="179.76" from="top-approaching" to="bottom-exit" type="L0-HDV-"/>
    <trip id="L0-HDV-169" depart="180.83" from="top-approaching" to="top-exit" type="L0-HDV-"/>
    <trip id="L0-HDV-170" depart="181.90" from="top-approaching" to="left-exit" type="L0-HDV-"/>
    <trip id="L0-HDV-171" depart="182.97" from="left-long-approaching" to="bottom-exit" type="L0-HDV-"/>
    <trip id="L0-HDV-172" depart="184.04" from="left-long-approaching" to="top-exit" type="L0-HDV-"/>
    <trip id="L0-HDV-173" depart="185.11" from="left-long-approaching" to="bottom-exit" type="L0-HDV-"/>
    <trip id="L0-HDV-174" depart="186.18" from="left-long-approaching" to="bottom-exit" type="L0-HDV-"/>
    <trip id="L0-HDV-175" depart="187.25" from="right-approaching" to="top-exit" type="L0-HDV-"/>
    <trip id="L0-HDV-176" depart="188.32" from="top-approaching" to="bottom-exit" type="L0-HDV-"/>
    <trip id="L0-HDV-177" depart="189.39" from="left-long-approaching" to="bottom-exit" type="L0-HDV-"/>
    <trip id="L0-HDV-178" depart="190.46" from="top-approaching" to="top-exit" type="L0-HDV-"/>
    <trip id="L0-HDV-179" depart="191.53" from="right-approaching" to="top-exit" type="L0-HDV-"/>
    <trip id="L0-HDV-180" depart="192.60" from="right-approaching" to="top-exit" type="L0-HDV-"/>
    <trip id="L0-HDV-181" depart="193.67" from="left-long-approaching" to="left-exit" type="L0-HDV-"/>
    <trip id="L0-HDV-182" depart="194.74" from="top-approaching" to="top-exit" type="L0-HDV-"/>
    <trip id="L0-HDV-183" depart="195.81" from="right-approaching" to="top-exit" type="L0-HDV-"/>
    <trip id="L0-HDV-184" depart="196.88" from="right-approaching" to="top-exit" type="L0-HDV-"/>
    <trip id="L0-HDV-185" depart="197.95" from="bottom-approaching" to="bottom-exit" type="L0-HDV-"/>
    <trip id="L0-HDV-186" depart="199.02" from="bottom-approaching" to="right-exit" type="L0-HDV-"/>
    <trip id="L0-HDV-187" depart="200.09" from="right-approaching" to="bottom-exit" type="L0-HDV-"/>
    <trip id="L0-HDV-188" depart="201.16" from="right-approaching" to="bottom-exit" type="L0-HDV-"/>
    <trip id="L0-HDV-189" depart="202.23" from="right-approaching" to="top-exit" type="L0-HDV-"/>
    <trip id="L0-HDV-190" depart="203.30" from="bottom-approaching" to="top-exit" type="L0-HDV-"/>
    <trip id="L0-HDV-191" depart="204.37" from="right-approaching" to="bottom-exit" type="L0-HDV-"/>
    <trip id="L0-HDV-192" depart="205.44" from="left-long-approaching" to="bottom-exit" type="L0-HDV-"/>
    <trip id="L0-HDV-193" depart="206.51" from="right-approaching" to="top-exit" type="L0-HDV-"/>
    <trip id="L0-HDV-194" depart="207.58" from="bottom-approaching" to="bottom-exit" type="L0-HDV-"/>
    <trip id="L0-HDV-195" depart="208.65" from="right-approaching" to="top-exit" type="L0-HDV-"/>
    <trip id="L0-HDV-196" depart="209.72" from="right-approaching" to="left-exit" type="L0-HDV-"/>
    <trip id="L0-HDV-197" depart="210.79" from="bottom-approaching" to="right-exit" type="L0-HDV-"/>
    <trip id="L0-HDV-198" depart="211.86" from="left-long-approaching" to="top-exit" type="L0-HDV-"/>
    <trip id="L0-HDV-199" depart="212.93" from="right-approaching" to="right-exit" type="L0-HDV-"/>
    <trip id="L0-HDV-200" depart="214.00" from="top-approaching" to="right-exit" type="L0-HDV-"/>
    <trip id="L0-HDV-201" depart="215.07" from="top-approaching" to="left-exit" type="L0-HDV-"/>
    <trip id="L0-HDV-202" depart="216.14" from="bottom-approaching" to="top-exit" type="L0-HDV-"/>
    <trip id="L0-HDV-203" depart="217.21" from="bottom-approaching" to="top-exit" type="L0-HDV-"/>
    <trip id="L0-HDV-204" depart="218.28" from="left-long-approaching" to="bottom-exit" type="L0-HDV-"/>
    <trip id="L0-HDV-205" depart="219.35" from="left-long-approaching" to="right-exit" type="L0-HDV-"/>
    <trip id="L0-HDV-206" depart="220.42" from="left-long-approaching" to="right-exit" type="L0-HDV-"/>
    <trip id="L0-HDV-207" depart="221.49" from="bottom-approaching" to="top-exit" type="L0-HDV-"/>
    <trip id="L0-HDV-208" depart="222.56" from="left-long-approaching" to="top-exit" type="L0-HDV-"/>
    <trip id="L0-HDV-209" depart="223.63" from="bottom-approaching" to="right-exit" type="L0-HDV-"/>
    <trip id="L0-HDV-210" depart="224.70" from="left-long-approaching" to="left-exit" type="L0-HDV-"/>
    <trip id="L0-HDV-211" depart="225.77" from="bottom-approaching" to="right-exit" type="L0-HDV-"/>
    <trip id="L0-HDV-212" depart="226.84" from="top-approaching" to="bottom-exit" type="L0-HDV-"/>
    <trip id="L0-HDV-213" depart="227.91" from="left-long-approaching" to="bottom-exit" type="L0-HDV-"/>
    <trip id="L0-HDV-214" depart="228.98" from="top-approaching" to="top-exit" type="L0-HDV-"/>
    <trip id="L0-HDV-215" depart="230.05" from="right-approaching" to="left-exit" type="L0-HDV-"/>
    <trip id="L0-HDV-216" depart="231.12" from="bottom-approaching" to="bottom-exit" type="L0-HDV-"/>
    <trip id="L0-HDV-217" depart="232.19" from="right-approaching" to="top-exit" type="L0-HDV-"/>
    <trip id="L0-HDV-218" depart="233.26" from="top-approaching" to="top-exit" type="L0-HDV-"/>
    <trip id="L0-HDV-219" depart="234.33" from="left-long-approaching" to="left-exit" type="L0-HDV-"/>
    <trip id="L0-HDV-220" depart="235.40" from="right-approaching" to="left-exit" type="L0-HDV-"/>
    <trip id="L0-HDV-221" depart="236.47" from="right-approaching" to="top-exit" type="L0-HDV-"/>
    <trip id="L0-HDV-222" depart="237.54" from="left-long-approaching" to="top-exit" type="L0-HDV-"/>
    <trip id="L0-HDV-223" depart="238.61" from="right-approaching" to="bottom-exit" type="L0-HDV-"/>
    <trip id="L0-HDV-224" depart="239.68" from="right-approaching" to="right-exit" type="L0-HDV-"/>
    <trip id="L0-HDV-225" depart="240.75" from="right-approaching" to="bottom-exit" type="L0-HDV-"/>
    <trip id="L0-HDV-226" depart="241.82" from="top-approaching" to="left-exit" type="L0-HDV-"/>
    <trip id="L0-HDV-227" depart="242.89" from="right-approaching" to="bottom-exit" type="L0-HDV-"/>
    <trip id="L0-HDV-228" depart="243.96" from="bottom-approaching" to="bottom-exit" type="L0-HDV-"/>
    <trip id="L0-HDV-229" depart="245.03" from="bottom-approaching" to="left-exit" type="L0-HDV-"/>
    <trip id="L0-HDV-230" depart="246.10" from="bottom-approaching" to="bottom-exit" type="L0-HDV-"/>
    <trip id="L0-HDV-231" depart="247.17" from="right-approaching" to="right-exit" type="L0-HDV-"/>
    <trip id="L0-HDV-232" depart="248.24" from="top-approaching" to="bottom-exit" type="L0-HDV-"/>
    <trip id="L0-HDV-233" depart="249.31" from="right-approaching" to="right-exit" type="L0-HDV-"/>
    <trip id="L0-HDV-234" depart="250.38" from="bottom-approaching" to="top-exit" type="L0-HDV-"/>
    <trip id="L0-HDV-235" depart="251.45" from="left-long-approaching" to="bottom-exit" type="L0-HDV-"/>
    <trip id="L0-HDV-236" depart="252.52" from="bottom-approaching" to="top-exit" type="L0-HDV-"/>
    <trip id="L0-HDV-237" depart="253.59" from="bottom-approaching" to="left-exit" type="L0-HDV-"/>
    <trip id="L0-HDV-238" depart="254.66" from="right-approaching" to="left-exit" type="L0-HDV-"/>
    <trip id="L0-HDV-239" depart="255.73" from="right-approaching" to="bottom-exit" type="L0-HDV-"/>
    <trip id="L0-HDV-240" depart="256.80" from="left-long-approaching" to="right-exit" type="L0-HDV-"/>
    <trip id="L0-HDV-241" depart="257.87" from="right-approaching" to="right-exit" type="L0-HDV-"/>
    <trip id="L0-HDV-242" depart="258.94" from="left-long-approaching" to="right-exit" type="L0-HDV-"/>
    <trip id="L0-HDV-243" depart="260.01" from="top-approaching" to="left-exit" type="L0-HDV-"/>
    <trip id="L0-HDV-244" depart="261.08" from="right-approaching" to="top-exit" type="L0-HDV-"/>
    <trip id="L0-HDV-245" depart="262.15" from="left-long-approaching" to="left-exit" type="L0-HDV-"/>
    <trip id="L0-HDV-246" depart="263.22" from="top-approaching" to="left-exit" type="L0-HDV-"/>
    <trip id="L0-HDV-247" depart="264.29" from="left-long-approaching" to="left-exit" type="L0-HDV-"/>
    <trip id="L0-HDV-248" depart="265.36" from="top-approaching" to="right-exit" type="L0-HDV-"/>
    <trip id="L0-HDV-249" depart="266.43" from="top-approaching" to="bottom-exit" type="L0-HDV-"/>
    <trip id="L0-HDV-250" depart="267.50" from="left-long-approaching" to="right-exit" type="L0-HDV-"/>
    <trip id="L0-HDV-251" depart="268.57" from="left-long-approaching" to="right-exit" type="L0-HDV-"/>
    <trip id="L0-HDV-252" depart="269.64" from="right-approaching" to="bottom-exit" type="L0-HDV-"/>
    <trip id="L0-HDV-253" depart="270.71" from="bottom-approaching" to="left-exit" type="L0-HDV-"/>
    <trip id="L0-HDV-254" depart="271.78" from="right-approaching" to="bottom-exit" type="L0-HDV-"/>
    <trip id="L0-HDV-255" depart="272.85" from="left-long-approaching" to="bottom-exit" type="L0-HDV-"/>
    <trip id="L0-HDV-256" depart="273.92" from="left-long-approaching" to="left-exit" type="L0-HDV-"/>
    <trip id="L0-HDV-257" depart="274.99" from="left-long-approaching" to="right-exit" type="L0-HDV-"/>
    <trip id="L0-HDV-258" depart="276.06" from="top-approaching" to="right-exit" type="L0-HDV-"/>
    <trip id="L0-HDV-259" depart="277.13" from="right-approaching" to="left-exit" type="L0-HDV-"/>
    <trip id="L0-HDV-260" depart="278.20" from="left-long-approaching" to="right-exit" type="L0-HDV-"/>
    <trip id="L0-HDV-261" depart="279.27" from="top-approaching" to="bottom-exit" type="L0-HDV-"/>
    <trip id="L0-HDV-262" depart="280.34" from="bottom-approaching" to="bottom-exit" type="L0-HDV-"/>
    <trip id="L0-HDV-263" depart="281.41" from="right-approaching" to="top-exit" type="L0-HDV-"/>
    <trip id="L0-HDV-264" depart="282.48" from="bottom-approaching" to="top-exit" type="L0-HDV-"/>
    <trip id="L0-HDV-265" depart="283.55" from="right-approaching" to="top-exit" type="L0-HDV-"/>
    <trip id="L0-HDV-266" depart="284.62" from="top-approaching" to="bottom-exit" type="L0-HDV-"/>
    <trip id="L0-HDV-267" depart="285.69" from="top-approaching" to="bottom-exit" type="L0-HDV-"/>
    <trip id="L0-HDV-268" depart="286.76" from="bottom-approaching" to="left-exit" type="L0-HDV-"/>
    <trip id="L0-HDV-269" depart="287.83" from="left-long-approaching" to="bottom-exit" type="L0-HDV-"/>
    <trip id="L0-HDV-270" depart="288.90" from="left-long-approaching" to="bottom-exit" type="L0-HDV-"/>
    <trip id="L0-HDV-271" depart="289.97" from="bottom-approaching" to="bottom-exit" type="L0-HDV-"/>
    <trip id="L0-HDV-272" depart="291.04" from="bottom-approaching" to="bottom-exit" type="L0-HDV-"/>
    <trip id="L0-HDV-273" depart="292.11" from="left-long-approaching" to="left-exit" type="L0-HDV-"/>
    <trip id="L0-HDV-274" depart="293.18" from="right-approaching" to="right-exit" type="L0-HDV-"/>
    <trip id="L0-HDV-275" depart="294.25" from="left-long-approaching" to="left-exit" type="L0-HDV-"/>
    <trip id="L0-HDV-276" depart="295.32" from="right-approaching" to="bottom-exit" type="L0-HDV-"/>
    <trip id="L0-HDV-277" depart="296.39" from="bottom-approaching" to="bottom-exit" type="L0-HDV-"/>
    <trip id="L0-HDV-278" depart="297.46" from="right-approaching" to="bottom-exit" type="L0-HDV-"/>
    <trip id="L0-HDV-279" depart="298.53" from="bottom-approaching" to="left-exit" type="L0-HDV-"/>
    <trip id="L0-HDV-280" depart="299.60" from="right-approaching" to="right-exit" type="L0-HDV-"/>
    <trip id="L0-HDV-281" depart="300.67" from="right-approaching" to="right-exit" type="L0-HDV-"/>
    <trip id="L0-HDV-282" depart="301.74" from="bottom-approaching" to="top-exit" type="L0-HDV-"/>
    <trip id="L0-HDV-283" depart="302.81" from="right-approaching" to="left-exit" type="L0-HDV-"/>
    <trip id="L0-HDV-284" depart="303.88" from="left-long-approaching" to="right-exit" type="L0-HDV-"/>
    <trip id="L0-HDV-285" depart="304.95" from="bottom-approaching" to="right-exit" type="L0-HDV-"/>
    <trip id="L0-HDV-286" depart="306.02" from="top-approaching" to="left-exit" type="L0-HDV-"/>
    <trip id="L0-HDV-287" depart="307.09" from="preparation" to="left-exit" type="L0-HDV-"/>
    <trip id="L0-HDV-288" depart="308.16" from="top-approaching" to="left-exit" type="L0-HDV-"/>
    <trip id="L0-HDV-289" depart="309.23" from="left-long-approaching" to="right-exit" type="L0-HDV-"/>
    <trip id="L0-HDV-290" depart="310.30" from="left-long-approaching" to="top-exit" type="L0-HDV-"/>
    <trip id="L0-HDV-291" depart="311.37" from="left-long-approaching" to="right-exit" type="L0-HDV-"/>
    <trip id="L0-HDV-292" depart="312.44" from="left-long-approaching" to="right-exit" type="L0-HDV-"/>
    <trip id="L0-HDV-293" depart="313.51" from="left-long-approaching" to="bottom-exit" type="L0-HDV-"/>
    <trip id="L0-HDV-294" depart="314.58" from="top-approaching" to="bottom-exit" type="L0-HDV-"/>
    <trip id="L0-HDV-295" depart="315.65" from="right-approaching" to="right-exit" type="L0-HDV-"/>