<?xml version="1.0" encoding="UTF-8"?>
<!-- generated on 2021-03-07 20:45:39.192701 by $Id$ v1_8_0+0044-4820708f3d
  options: -n Collision/CollisionIntersection.net.xml -r Collision/BaselineCAV/Route-Files/L4-CV-Route.rou.xml <doubleminus>trip-attributes=type="L4-CV" -b 120 -l <doubleminus>prefix L4-CV- <doubleminus>seed 9 -p 1.86
-->
<routes xmlns:xsi="http://www.w3.org/2001/XMLSchema-instance" xsi:noNamespaceSchemaLocation="http://sumo.dlr.de/xsd/routes_file.xsd">
    <trip id="L4-CV-0" depart="120.00" from="left-approaching" to="left-exit" type="L4-CV"/>
    <trip id="L4-CV-1" depart="121.86" from="bottom-approaching" to="top-exit" type="L4-CV"/>
    <trip id="L4-CV-2" depart="123.72" from="bottom-approaching" to="left-exit" type="L4-CV"/>
    <trip id="L4-CV-3" depart="125.58" from="top-approaching" to="bottom-exit" type="L4-CV"/>
    <trip id="L4-CV-4" depart="127.44" from="left-approaching" to="right-exit" type="L4-CV"/>
    <trip id="L4-CV-5" depart="129.30" from="bottom-approaching" to="left-exit" type="L4-CV"/>
    <trip id="L4-CV-6" depart="131.16" from="right-approaching" to="left-exit" type="L4-CV"/>
    <trip id="L4-CV-7" depart="133.02" from="right-approaching" to="bottom-exit" type="L4-CV"/>
    <trip id="L4-CV-8" depart="134.88" from="left-approaching" to="bottom-exit" type="L4-CV"/>
    <trip id="L4-CV-9" depart="136.74" from="left-approaching" to="top-exit" type="L4-CV"/>
    <trip id="L4-CV-10" depart="138.60" from="right-approaching" to="right-exit" type="L4-CV"/>
    <trip id="L4-CV-11" depart="140.46" from="left-approaching" to="right-exit" type="L4-CV"/>
    <trip id="L4-CV-12" depart="142.32" from="bottom-approaching" to="left-exit" type="L4-CV"/>
    <trip id="L4-CV-13" depart="144.18" from="right-approaching" to="right-exit" type="L4-CV"/>
    <trip id="L4-CV-14" depart="146.04" from="left-approaching" to="bottom-exit" type="L4-CV"/>
    <trip id="L4-CV-15" depart="147.90" from="left-approaching" to="left-exit" type="L4-CV"/>
    <trip id="L4-CV-16" depart="149.76" from="left-approaching" to="top-exit" type="L4-CV"/>
    <trip id="L4-CV-17" depart="151.62" from="bottom-approaching" to="top-exit" type="L4-CV"/>
    <trip id="L4-CV-18" depart="153.48" from="top-approaching" to="bottom-exit" type="L4-CV"/>
    <trip id="L4-CV-19" depart="155.34" from="left-approaching" to="left-exit" type="L4-CV"/>
    <trip id="L4-CV-20" depart="157.20" from="bottom-approaching" to="left-exit" type="L4-CV"/>
    <trip id="L4-CV-21" depart="159.06" from="top-approaching" to="bottom-exit" type="L4-CV"/>
    <trip id="L4-CV-22" depart="160.92" from="right-approaching" to="bottom-exit" type="L4-CV"/>
    <trip id="L4-CV-23" depart="162.78" from="left-approaching" to="top-exit" type="L4-CV"/>
    <trip id="L4-CV-24" depart="164.64" from="bottom-approaching" to="bottom-exit" type="L4-CV"/>
    <trip id="L4-CV-25" depart="166.50" from="bottom-approaching" to="left-exit" type="L4-CV"/>
    <trip id="L4-CV-26" depart="168.36" from="bottom-approaching" to="bottom-exit" type="L4-CV"/>
    <trip id="L4-CV-27" depart="170.22" from="left-approaching" to="top-exit" type="L4-CV"/>
    <trip id="L4-CV-28" depart="172.08" from="left-approaching" to="left-exit" type="L4-CV"/>
    <trip id="L4-CV-29" depart="173.94" from="right-approaching" to="bottom-exit" type="L4-CV"/>
    <trip id="L4-CV-30" depart="175.80" from="left-approaching" to="bottom-exit" type="L4-CV"/>
    <trip id="L4-CV-31" depart="177.66" from="right-approaching" to="top-exit" type="L4-CV"/>
    <trip id="L4-CV-32" depart="179.52" from="bottom-approaching" to="left-exit" type="L4-CV"/>
    <trip id="L4-CV-33" depart="181.38" from="right-approaching" to="bottom-exit" type="L4-CV"/>
    <trip id="L4-CV-34" depart="183.24" from="left-approaching" to="top-exit" type="L4-CV"/>
    <trip id="L4-CV-35" depart="185.10" from="top-approaching" to="bottom-exit" type="L4-CV"/>
    <trip id="L4-CV-36" depart="186.96" from="right-approaching" to="top-exit" type="L4-CV"/>
    <trip id="L4-CV-37" depart="188.82" from="left-approaching" to="right-exit" type="L4-CV"/>
    <trip id="L4-CV-38" depart="190.68" from="bottom-approaching" to="left-exit" type="L4-CV"/>
    <trip id="L4-CV-39" depart="192.54" from="right-approaching" to="right-exit" type="L4-CV"/>
    <trip id="L4-CV-40" depart="194.40" from="right-approaching" to="bottom-exit" type="L4-CV"/>
    <trip id="L4-CV-41" depart="196.26" from="left-approaching" to="top-exit" type="L4-CV"/>
    <trip id="L4-CV-42" depart="198.12" from="left-approaching" to="left-exit" type="L4-CV"/>
    <trip id="L4-CV-43" depart="199.98" from="left-approaching" to="top-exit" type="L4-CV"/>
    <trip id="L4-CV-44" depart="201.84" from="left-approaching" to="bottom-exit" type="L4-CV"/>
    <trip id="L4-CV-45" depart="203.70" from="top-approaching" to="left-exit" type="L4-CV"/>
    <trip id="L4-CV-46" depart="205.56" from="left-approaching" to="left-exit" type="L4-CV"/>
    <trip id="L4-CV-47" depart="207.42" from="left-approaching" to="left-exit" type="L4-CV"/>
    <trip id="L4-CV-48" depart="209.28" from="bottom-approaching" to="right-exit" type="L4-CV"/>
    <trip id="L4-CV-49" depart="211.14" from="bottom-approaching" to="right-exit" type="L4-CV"/>
    <trip id="L4-CV-50" depart="213.00" from="bottom-approaching" to="right-exit" type="L4-CV"/>
    <trip id="L4-CV-51" depart="214.86" from="top-approaching" to="left-exit" type="L4-CV"/>
    <trip id="L4-CV-52" depart="216.72" from="right-approaching" to="left-exit" type="L4-CV"/>
    <trip id="L4-CV-53" depart="218.58" from="right-approaching" to="left-exit" type="L4-CV"/>
    <trip id="L4-CV-54" depart="220.44" from="left-approaching" to="top-exit" type="L4-CV"/>
    <trip id="L4-CV-55" depart="222.30" from="left-approaching" to="left-exit" type="L4-CV"/>
    <trip id="L4-CV-56" depart="224.16" from="top-approaching" to="left-exit" type="L4-CV"/>
    <trip id="L4-CV-57" depart="226.02" from="right-approaching" to="bottom-exit" type="L4-CV"/>
    <trip id="L4-CV-58" depart="227.88" from="top-approaching" to="left-exit" type="L4-CV"/>
    <trip id="L4-CV-59" depart="229.74" from="bottom-approaching" to="top-exit" type="L4-CV"/>
    <trip id="L4-CV-60" depart="231.60" from="bottom-approaching" to="top-exit" type="L4-CV"/>
    <trip id="L4-CV-61" depart="233.46" from="top-approaching" to="right-exit" type="L4-CV"/>
    <trip id="L4-CV-62" depart="235.32" from="bottom-approaching" to="bottom-exit" type="L4-CV"/>
    <trip id="L4-CV-63" depart="237.18" from="left-approaching" to="left-exit" type="L4-CV"/>
    <trip id="L4-CV-64" depart="239.04" from="right-approaching" to="top-exit" type="L4-CV"/>
    <trip id="L4-CV-65" depart="240.90" from="left-approaching" to="bottom-exit" type="L4-CV"/>
    <trip id="L4-CV-66" depart="242.76" from="left-approaching" to="bottom-exit" type="L4-CV"/>
    <trip id="L4-CV-67" depart="244.62" from="bottom-approaching" to="left-exit" type="L4-CV"/>
    <trip id="L4-CV-68" depart="246.48" from="right-approaching" to="bottom-exit" type="L4-CV"/>
    <trip id="L4-CV-69" depart="248.34" from="left-approaching" to="right-exit" type="L4-CV"/>
    <trip id="L4-CV-70" depart="250.20" from="right-approaching" to="left-exit" type="L4-CV"/>
    <trip id="L4-CV-71" depart="252.06" from="top-approaching" to="bottom-exit" type="L4-CV"/>
    <trip id="L4-CV-72" depart="253.92" from="right-approaching" to="right-exit" type="L4-CV"/>
    <trip id="L4-CV-73" depart="255.78" from="top-approaching" to="left-exit" type="L4-CV"/>
    <trip id="L4-CV-74" depart="257.64" from="bottom-approaching" to="bottom-exit" type="L4-CV"/>
    <trip id="L4-CV-75" depart="259.50" from="left-approaching" to="bottom-exit" type="L4-CV"/>
    <trip id="L4-CV-76" depart="261.36" from="right-approaching" to="bottom-exit" type="L4-CV"/>
    <trip id="L4-CV-77" depart="263.22" from="right-approaching" to="left-exit" type="L4-CV"/>
    <trip id="L4-CV-78" depart="265.08" from="bottom-approaching" to="bottom-exit" type="L4-CV"/>
    <trip id="L4-CV-79" depart="266.94" from="left-approaching" to="left-exit" type="L4-CV"/>
    <trip id="L4-CV-80" depart="268.80" from="left-approaching" to="bottom-exit" type="L4-CV"/>
    <trip id="L4-CV-81" depart="270.66" from="left-approaching" to="top-exit" type="L4-CV"/>
    <trip id="L4-CV-82" depart="272.52" from="left-approaching" to="top-exit" type="L4-CV"/>
    <trip id="L4-CV-83" depart="274.38" from="bottom-approaching" to="top-exit" type="L4-CV"/>
    <trip id="L4-CV-84" depart="276.24" from="top-approaching" to="left-exit" type="L4-CV"/>
    <trip id="L4-CV-85" depart="278.10" from="left-approaching" to="left-exit" type="L4-CV"/>
    <trip id="L4-CV-86" depart="279.96" from="top-approaching" to="bottom-exit" type="L4-CV"/>
    <trip id="L4-CV-87" depart="281.82" from="right-approaching" to="left-exit" type="L4-CV"/>
    <trip id="L4-CV-88" depart="283.68" from="left-approaching" to="right-exit" type="L4-CV"/>
    <trip id="L4-CV-89" depart="285.54" from="right-approaching" to="bottom-exit" type="L4-CV"/>
    <trip id="L4-CV-90" depart="287.40" from="right-approaching" to="left-exit" type="L4-CV"/>
    <trip id="L4-CV-91" depart="289.26" from="left-approaching" to="right-exit" type="L4-CV"/>
    <trip id="L4-CV-92" depart="291.12" from="bottom-approaching" to="right-exit" type="L4-CV"/>
    <trip id="L4-CV-93" depart="292.98" from="left-approaching" to="top-exit" type="L4-CV"/>
    <trip id="L4-CV-94" depart="294.84" from="left-approaching" to="top-exit" type="L4-CV"/>
    <trip id="L4-CV-95" depart="296.70" from="right-approaching" to="right-exit" type="L4-CV"/>
    <trip id="L4-CV-96" depart="298.56" from="top-approaching" to="bottom-exit" type="L4-CV"/>
    <trip id="L4-CV-97" depart="300.42" from="right-approaching" to="right-exit" type="L4-CV"/>
    <trip id="L4-CV-98" depart="302.28" from="right-approaching" to="left-exit" type="L4-CV"/>
    <trip id="L4-CV-99" depart="304.14" from="bottom-approaching" to="bottom-exit" type="L4-CV"/>
    <trip id="L4-CV-100" depart="306.00" from="right-approaching" to="bottom-exit" type="L4-CV"/>
    <trip id="L4-CV-101" depart="307.86" from="bottom-approaching" to="left-exit" type="L4-CV"/>
    <trip id="L4-CV-102" depart="309.72" from="left-approaching" to="left-exit" type="L4-CV"/>
    <trip id="L4-CV-103" depart="311.58" from="bottom-approaching" to="right-exit" type="L4-CV"/>
    <trip id="L4-CV-104" depart="313.44" from="left-approaching" to="right-exit" type="L4-CV"/>
    <trip id="L4-CV-105" depart="315.30" from="bottom-approaching" to="top-exit" type="L4-CV"/>
    <trip id="L4-CV-106" depart="317.16" from="right-approaching" to="top-exit" type="L4-CV"/>
    <trip id="L4-CV-107" depart="319.02" from="top-approaching" to="top-exit" type="L4-CV"/>
    <trip id="L4-CV-108" depart="320.88" from="bottom-approaching" to="left-exit" type="L4-CV"/>
    <trip id="L4-CV-109" depart="322.74" from="left-approaching" to="right-exit" type="L4-CV"/>
    <trip id="L4-CV-110" depart="324.60" from="bottom-approaching" to="left-exit" type="L4-CV"/>
    <trip id="L4-CV-111" depart="326.46" from="bottom-approaching" to="bottom-exit" type="L4-CV"/>
    <trip id="L4-CV-112" depart="328.32" from="top-approaching" to="top-exit" type="L4-CV"/>
    <trip id="L4-CV-113" depart="330.18" from="left-approaching" to="right-exit" type="L4-CV"/>
    <trip id="L4-CV-114" depart="332.04" from="left-approaching" to="left-exit" type="L4-CV"/>
    <trip id="L4-CV-115" depart="333.90" from="left-approaching" to="right-exit" type="L4-CV"/>
    <trip id="L4-CV-116" depart="335.76" from="left-approaching" to="left-exit" type="L4-CV"/>
    <trip id="L4-CV-117" depart="337.62" from="left-approaching" to="bottom-exit" type="L4-CV"/>
    <trip id="L4-CV-118" depart="339.48" from="left-approaching" to="top-exit" type="L4-CV"/>
    <trip id="L4-CV-119" depart="341.34" from="bottom-approaching" to="bottom-exit" type="L4-CV"/>
    <trip id="L4-CV-120" depart="343.20" from="top-approaching" to="bottom-exit" type="L4-CV"/>
    <trip id="L4-CV-121" depart="345.06" from="left-approaching" to="top-exit" type="L4-CV"/>
    <trip id="L4-CV-122" depart="346.92" from="right-approaching" to="left-exit" type="L4-CV"/>
    <trip id="L4-CV-123" depart="348.78" from="bottom-approaching" to="left-exit" type="L4-CV"/>
    <trip id="L4-CV-124" depart="350.64" from="left-approaching" to="top-exit" type="L4-CV"/>
    <trip id="L4-CV-125" depart="352.50" from="top-approaching" to="right-exit" type="L4-CV"/>
    <trip id="L4-CV-126" depart="354.36" from="top-approaching" to="top-exit" type="L4-CV"/>
    <trip id="L4-CV-127" depart="356.22" from="top-approaching" to="top-exit" type="L4-CV"/>
    <trip id="L4-CV-128" depart="358.08" from="top-approaching" to="bottom-exit" type="L4-CV"/>
    <trip id="L4-CV-129" depart="359.94" from="left-approaching" to="left-exit" type="L4-CV"/>
    <trip id="L4-CV-130" depart="361.80" from="right-approaching" to="left-exit" type="L4-CV"/>
    <trip id="L4-CV-131" depart="363.66" from="left-approaching" to="top-exit" type="L4-CV"/>
    <trip id="L4-CV-132" depart="365.52" from="left-approaching" to="left-exit" type="L4-CV"/>
    <trip id="L4-CV-133" depart="367.38" from="left-approaching" to="left-exit" type="L4-CV"/>
    <trip id="L4-CV-134" depart="369.24" from="right-approaching" to="left-exit" type="L4-CV"/>
    <trip id="L4-CV-135" depart="371.10" from="left-approaching" to="bottom-exit" type="L4-CV"/>
    <trip id="L4-CV-136" depart="372.96" from="left-approaching" to="left-exit" type="L4-CV"/>
    <trip id="L4-CV-137" depart="374.82" from="bottom-approaching" to="left-exit" type="L4-CV"/>
    <trip id="L4-CV-138" depart="376.68" from="bottom-approaching" to="right-exit" type="L4-CV"/>
    <trip id="L4-CV-139" depart="378.54" from="right-approaching" to="bottom-exit" type="L4-CV"/>
    <trip id="L4-CV-140" depart="380.40" from="right-approaching" to="left-exit" type="L4-CV"/>
    <trip id="L4-CV-141" depart="382.26" from="left-approaching" to="right-exit" type="L4-CV"/>
    <trip id="L4-CV-142" depart="384.12" from="right-approaching" to="top-exit" type="L4-CV"/>
    <trip id="L4-CV-143" depart="385.98" from="right-approaching" to="left-exit" type="L4-CV"/>
    <trip id="L4-CV-144" depart="387.84" from="left-approaching" to="left-exit" type="L4-CV"/>
    <trip id="L4-CV-145" depart="389.70" from="bottom-approaching" to="left-exit" type="L4-CV"/>
    <trip id="L4-CV-146" depart="391.56" from="left-approaching" to="top-exit" type="L4-CV"/>
    <trip id="L4-CV-147" depart="393.42" from="left-approaching" to="top-exit" type="L4-CV"/>
    <trip id="L4-CV-148" depart="395.28" from="left-approaching" to="bottom-exit" type="L4-CV"/>
    <trip id="L4-CV-149" depart="397.14" from="right-approaching" to="left-exit" type="L4-CV"/>
    <trip id="L4-CV-150" depart="399.00" from="left-approaching" to="bottom-exit" type="L4-CV"/>
    <trip id="L4-CV-151" depart="400.86" from="bottom-approaching" to="top-exit" type="L4-CV"/>
    <trip id="L4-CV-152" depart="402.72" from="bottom-approaching" to="bottom-exit" type="L4-CV"/>
    <trip id="L4-CV-153" depart="404.58" from="bottom-approaching" to="bottom-exit" type="L4-CV"/>
    <trip id="L4-CV-154" depart="406.44" from="top-approaching" to="top-exit" type="L4-CV"/>
    <trip id="L4-CV-155" depart="408.30" from="right-approaching" to="left-exit" type="L4-CV"/>
    <trip id="L4-CV-156" depart="410.16" from="top-approaching" to="left-exit" type="L4-CV"/>
    <trip id="L4-CV-157" depart="412.02" from="bottom-approaching" to="right-exit" type="L4-CV"/>
    <trip id="L4-CV-158" depart="413.88" from="left-approaching" to="left-exit" type="L4-CV"/>
    <trip id="L4-CV-159" depart="415.74" from="left-approaching" to="left-exit" type="L4-CV"/>
    <trip id="L4-CV-160" depart="417.60" from="bottom-approaching" to="right-exit" type="L4-CV"/>
    <trip id="L4-CV-161" depart="419.46" from="top-approaching" to="left-exit" type="L4-CV"/>
    <trip id="L4-CV-162" depart="421.32" from="bottom-approaching" to="right-exit" type="L4-CV"/>
    <trip id="L4-CV-163" depart="423.18" from="bottom-approaching" to="left-exit" type="L4-CV"/>
    <trip id="L4-CV-164" depart="425.04" from="top-approaching" to="right-exit" type="L4-CV"/>
    <trip id="L4-CV-165" depart="426.90" from="top-approaching" to="right-exit" type="L4-CV"/>
    <trip id="L4-CV-166" depart="428.76" from="left-approaching" to="bottom-exit" type="L4-CV"/>
    <trip id="L4-CV-167" depart="430.62" from="left-approaching" to="right-exit" type="L4-CV"/>
    <trip id="L4-CV-168" depart="432.48" from="left-approaching" to="left-exit" type="L4-CV"/>
    <trip id="L4-CV-169" depart="434.34" from="right-approaching" to="left-exit" type="L4-CV"/>
    <trip id="L4-CV-170" depart="436.20" from="right-approaching" to="left-exit" type="L4-CV"/>
    <trip id="L4-CV-171" depart="438.06" from="top-approaching" to="bottom-exit" type="L4-CV"/>
    <trip id="L4-CV-172" depart="439.92" from="bottom-approaching" to="right-exit" type="L4-CV"/>
    <trip id="L4-CV-173" depart="441.78" from="right-approaching" to="bottom-exit" type="L4-CV"/>
    <trip id="L4-CV-174" depart="443.64" from="bottom-approaching" to="left-exit" type="L4-CV"/>
    <trip id="L4-CV-175" depart="445.50" from="left-approaching" to="top-exit" type="L4-CV"/>
    <trip id="L4-CV-176" depart="447.36" from="left-approaching" to="bottom-exit" type="L4-CV"/>
    <trip id="L4-CV-177" depart="449.22" from="right-approaching" to="left-exit" type="L4-CV"/>
    <trip id="L4-CV-178" depart="451.08" from="top-approaching" to="top-exit" type="L4-CV"/>
    <trip id="L4-CV-179" depart="452.94" from="top-approaching" to="right-exit" type="L4-CV"/>
    <trip id="L4-CV-180" depart="454.80" from="left-approaching" to="bottom-exit" type="L4-CV"/>
    <trip id="L4-CV-181" depart="456.66" from="top-approaching" to="left-exit" type="L4-CV"/>
    <trip id="L4-CV-182" depart="458.52" from="left-approaching" to="right-exit" type="L4-CV"/>
    <trip id="L4-CV-183" depart="460.38" from="top-approaching" to="left-exit" type="L4-CV"/>
    <trip id="L4-CV-184" depart="462.24" from="top-approaching" to="top-exit" type="L4-CV"/>
    <trip id="L4-CV-185" depart="464.10" from="bottom-approaching" to="left-exit" type="L4-CV"/>
    <trip id="L4-CV-186" depart="465.96" from="top-approaching" to="right-exit" type="L4-CV"/>
    <trip id="L4-CV-187" depart="467.82" from="top-approaching" to="bottom-exit" type="L4-CV"/>
    <trip id="L4-CV-188" depart="469.68" from="left-approaching" to="top-exit" type="L4-CV"/>
    <trip id="L4-CV-189" depart="471.54" from="left-approaching" to="right-exit" type="L4-CV"/>
    <trip id="L4-CV-190" depart="473.40" from="top-approaching" to="bottom-exit" type="L4-CV"/>
    <trip id="L4-CV-191" depart="475.26" from="bottom-approaching" to="top-exit" type="L4-CV"/>
    <trip id="L4-CV-192" depart="477.12" from="left-approaching" to="bottom-exit" type="L4-CV"/>
    <trip id="L4-CV-193" depart="478.98" from="top-approaching" to="left-exit" type="L4-CV"/>
    <trip id="L4-CV-194" depart="480.84" from="bottom-approaching" to="left-exit" type="L4-CV"/>
    <trip id="L4-CV-195" depart="482.70" from="bottom-approaching" to="left-exit" type="L4-CV"/>
    <trip id="L4-CV-196" depart="484.56" from="right-approaching" to="left-exit" type="L4-CV"/>
    <trip id="L4-CV-197" depart="486.42" from="top-approaching" to="bottom-exit" type="L4-CV"/>
    <trip id="L4-CV-198" depart="488.28" from="bottom-approaching" to="bottom-exit" type="L4-CV"/>
    <trip id="L4-CV-199" depart="490.14" from="left-approaching" to="bottom-exit" type="L4-CV"/>
    <trip id="L4-CV-200" depart="492.00" from="right-approaching" to="left-exit" type="L4-CV"/>
    <trip id="L4-CV-201" depart="493.86" from="left-approaching" to="top-exit" type="L4-CV"/>
    <trip id="L4-CV-202" depart="495.72" from="right-approaching" to="top-exit" type="L4-CV"/>
    <trip id="L4-CV-203" depart="497.58" from="bottom-approaching" to="left-exit" type="L4-CV"/>
    <trip id="L4-CV-204" depart="499.44" from="top-approaching" to="left-exit" type="L4-CV"/>
    <trip id="L4-CV-205" depart="501.30" from="left-approaching" to="left-exit" type="L4-CV"/>
    <trip id="L4-CV-206" depart="503.16" from="bottom-approaching" to="top-exit" type="L4-CV"/>
    <trip id="L4-CV-207" depart="505.02" from="right-approaching" to="bottom-exit" type="L4-CV"/>
    <trip id="L4-CV-208" depart="506.88" from="top-approaching" to="left-exit" type="L4-CV"/>
    <trip id="L4-CV-209" depart="508.74" from="left-approaching" to="right-exit" type="L4-CV"/>
    <trip id="L4-CV-210" depart="510.60" from="top-approaching" to="left-exit" type="L4-CV"/>
    <trip id="L4-CV-211" depart="512.46" from="bottom-approaching" to="bottom-exit" type="L4-CV"/>
    <trip id="L4-CV-212" depart="514.32" from="bottom-approaching" to="left-exit" type="L4-CV"/>
    <trip id="L4-CV-213" depart="516.18" from="left-approaching" to="top-exit" type="L4-CV"/>
    <trip id="L4-CV-214" depart="518.04" from="bottom-approaching" to="bottom-exit" type="L4-CV"/>
    <trip id="L4-CV-215" depart="519.90" from="left-approaching" to="bottom-exit" type="L4-CV"/>
    <trip id="L4-CV-216" depart="521.76" from="left-approaching" to="left-exit" type="L4-CV"/>
    <trip id="L4-CV-217" depart="523.62" from="bottom-approaching" to="right-exit" type="L4-CV"/>
    <trip id="L4-CV-218" depart="525.48" from="top-approaching" to="left-exit" type="L4-CV"/>
    <trip id="L4-CV-219" depart="527.34" from="right-approaching" to="left-exit" type="L4-CV"/>
    <trip id="L4-CV-220" depart="529.20" from="top-approaching" to="left-exit" type="L4-CV"/>
    <trip id="L4-CV-221" depart="531.06" from="bottom-approaching" to="right-exit" type="L4-CV"/>
    <trip id="L4-CV-222" depart="532.92" from="left-approaching" to="bottom-exit" type="L4-CV"/>
    <trip id="L4-CV-223" depart="534.78" from="bottom-approaching" to="top-exit" type="L4-CV"/>
    <trip id="L4-CV-224" depart="536.64" from="right-approaching" to="left-exit" type="L4-CV"/>
    <trip id="L4-CV-225" depart="538.50" from="left-approaching" to="right-exit" type="L4-CV"/>
    <trip id="L4-CV-226" depart="540.36" from="bottom-approaching" to="right-exit" type="L4-CV"/>
    <trip id="L4-CV-227" depart="542.22" from="right-approaching" to="top-exit" type="L4-CV"/>
    <trip id="L4-CV-228" depart="544.08" from="bottom-approaching" to="left-exit" type="L4-CV"/>
    <trip id="L4-CV-229" depart="545.94" from="left-approaching" to="top-exit" type="L4-CV"/>
    <trip id="L4-CV-230" depart="547.80" from="left-approaching" to="right-exit" type="L4-CV"/>
    <trip id="L4-CV-231" depart="549.66" from="top-approaching" to="left-exit" type="L4-CV"/>
    <trip id="L4-CV-232" depart="551.52" from="left-approaching" to="top-exit" type="L4-CV"/>
    <trip id="L4-CV-233" depart="553.38" from="bottom-approaching" to="top-exit" type="L4-CV"/>
    <trip id="L4-CV-234" depart="555.24" from="left-approaching" to="left-exit" type="L4-CV"/>
    <trip id="L4-CV-235" depart="557.10" from="left-approaching" to="top-exit" type="L4-CV"/>
    <trip id="L4-CV-236" depart="558.96" from="left-approaching" to="right-exit" type="L4-CV"/>
    <trip id="L4-CV-237" depart="560.82" from="bottom-approaching" to="top-exit" type="L4-CV"/>
    <trip id="L4-CV-238" depart="562.68" from="top-approaching" to="right-exit" type="L4-CV"/>
    <trip id="L4-CV-239" depart="564.54" from="left-approaching" to="left-exit" type="L4-CV"/>
    <trip id="L4-CV-240" depart="566.40" from="left-approaching" to="bottom-exit" type="L4-CV"/>
    <trip id="L4-CV-241" depart="568.26" from="top-approaching" to="left-exit" type="L4-CV"/>
    <trip id="L4-CV-242" depart="570.12" from="top-approaching" to="bottom-exit" type="L4-CV"/>
    <trip id="L4-CV-243" depart="571.98" from="right-approaching" to="top-exit" type="L4-CV"/>
    <trip id="L4-CV-244" depart="573.84" from="right-approaching" to="left-exit" type="L4-CV"/>
    <trip id="L4-CV-245" depart="575.70" from="bottom-approaching" to="left-exit" type="L4-CV"/>
    <trip id="L4-CV-246" depart="577.56" from="left-approaching" to="top-exit" type="L4-CV"/>
    <trip id="L4-CV-247" depart="579.42" from="top-approaching" to="top-exit" type="L4-CV"/>
    <trip id="L4-CV-248" depart="581.28" from="top-approaching" to="bottom-exit" type="L4-CV"/>
    <trip id="L4-CV-249" depart="583.14" from="bottom-approaching" to="left-exit" type="L4-CV"/>
    <trip id="L4-CV-250" depart="585.00" from="bottom-approaching" to="bottom-exit" type="L4-CV"/>
    <trip id="L4-CV-251" depart="586.86" from="left-approaching" to="bottom-exit" type="L4-CV"/>
    <trip id="L4-CV-252" depart="588.72" from="right-approaching" to="left-exit" type="L4-CV"/>
    <trip id="L4-CV-253" depart="590.58" from="left-approaching" to="top-exit" type="L4-CV"/>
    <trip id="L4-CV-254" depart="592.44" from="bottom-approaching" to="top-exit" type="L4-CV"/>
    <trip id="L4-CV-255" depart="594.30" from="left-approaching" to="right-exit" type="L4-CV"/>
    <trip id="L4-CV-256" depart="596.16" from="bottom-approaching" to="right-exit" type="L4-CV"/>
    <trip id="L4-CV-257" depart="598.02" from="top-approaching" to="bottom-exit" type="L4-CV"/>
    <trip id="L4-CV-258" depart="599.88" from="left-approaching" to="right-exit" type="L4-CV"/>
    <trip id="L4-CV-259" depart="601.74" from="left-approaching" to="right-exit" type="L4-CV"/>
    <trip id="L4-CV-260" depart="603.60" from="right-approaching" to="left-exit" type="L4-CV"/>
    <trip id="L4-CV-261" depart="605.46" from="right-approaching" to="right-exit" type="L4-CV"/>
    <trip id="L4-CV-262" depart="607.32" from="left-approaching" to="right-exit" type="L4-CV"/>
    <trip id="L4-CV-263" depart="609.18" from="right-approaching" to="left-exit" type="L4-CV"/>
    <trip id="L4-CV-264" depart="611.04" from="bottom-approaching" to="left-exit" type="L4-CV"/>
    <trip id="L4-CV-265" depart="612.90" from="right-approaching" to="right-exit" type="L4-CV"/>
    <trip id="L4-CV-266" depart="614.76" from="bottom-approaching" to="left-exit" type="L4-CV"/>
    <trip id="L4-CV-267" depart="616.62" from="right-approaching" to="left-exit" type="L4-CV"/>
    <trip id="L4-CV-268" depart="618.48" from="bottom-approaching" to="right-exit" type="L4-CV"/>
    <trip id="L4-CV-269" depart="620.34" from="right-approaching" to="left-exit" type="L4-CV"/>
    <trip id="L4-CV-270" depart="622.20" from="top-approaching" to="left-exit" type="L4-CV"/>
    <trip id="L4-CV-271" depart="624.06" from="bottom-approaching" to="left-exit" type="L4-CV"/>
    <trip id="L4-CV-272" depart="625.92" from="right-approaching" to="bottom-exit" type="L4-CV"/>
    <trip id="L4-CV-273" depart="627.78" from="top-approaching" to="right-exit" type="L4-CV"/>
    <trip id="L4-CV-274" depart="629.64" from="right-approaching" to="bottom-exit" type="L4-CV"/>
    <trip id="L4-CV-275" depart="631.50" from="bottom-approaching" to="top-exit" type="L4-CV"/>
    <trip id="L4-CV-276" depart="633.36" from="left-approaching" to="left-exit" type="L4-CV"/>
    <trip id="L4-CV-277" depart="635.22" from="left-approaching" to="right-exit" type="L4-CV"/>
    <trip id="L4-CV-278" depart="637.08" from="left-approaching" to="right-exit" type="L4-CV"/>
    <trip id="L4-CV-279" depart="638.94" from="bottom-approaching" to="top-exit" type="L4-CV"/>
    <trip id="L4-CV-280" depart="640.80" from="right-approaching" to="left-exit" type="L4-CV"/>
    <trip id="L4-CV-281" depart="642.66" from="left-approaching" to="top-exit" type="L4-CV"/>
    <trip id="L4-CV-282" depart="644.52" from="left-approaching" to="right-exit" type="L4-CV"/>
    <trip id="L4-CV-283" depart="646.38" from="top-approaching" to="top-exit" type="L4-CV"/>
    <trip id="L4-CV-284" depart="648.24" from="left-approaching" to="top-exit" type="L4-CV"/>
    <trip id="L4-CV-285" depart="650.10" from="right-approaching" to="top-exit" type="L4-CV"/>
    <trip id="L4-CV-286" depart="651.96" from="bottom-approaching" to="left-exit" type="L4-CV"/>
    <trip id="L4-CV-287" depart="653.82" from="left-approaching" to="top-exit" type="L4-CV"/>
    <trip id="L4-CV-288" depart="655.68" from="left-approaching" to="bottom-exit" type="L4-CV"/>
    <trip id="L4-CV-289" depart="657.54" from="left-approaching" to="top-exit" type="L4-CV"/>
    <trip id="L4-CV-290" depart="659.40" from="top-approaching" to="left-exit" type="L4-CV"/>
    <trip id="L4-CV-291" depart="661.26" from="bottom-approaching" to="right-exit" type="L4-CV"/>
    <trip id="L4-CV-292" depart="663.12" from="top-approaching" to="left-exit" type="L4-CV"/>
    <trip id="L4-CV-293" depart="664.98" from="left-approaching" to="left-exit" type="L4-CV"/>
    <trip id="L4-CV-294" depart="666.84" from="bottom-approaching" to="right-exit" type="L4-CV"/>
    <trip id="L4-CV-295" depart="668.70" from="bottom-approaching" to="bottom-exit" type="L4-CV"/>
    <trip id="L4-CV-296" depart="670.56" from="top-approaching" to="bottom-exit" type="L4-CV"/>
    <trip id="L4-CV-297" depart="672.42" from="right-approaching" to="top-exit" type="L4-CV"/>
    <trip id="L4-CV-298" depart="674.28" from="left-approaching" to="left-exit" type="L4-CV"/>
    <trip id="L4-CV-299" depart="676.14" from="left-approaching" to="right-exit" type="L4-CV"/>
    <trip id="L4-CV-300" depart="678.00" from="top-approaching" to="right-exit" type="L4-CV"/>
    <trip id="L4-CV-301" depart="679.86" from="left-approaching" to="left-exit" type="L4-CV"/>
    <trip id="L4-CV-302" depart="681.72" from="left-approaching" to="right-exit" type="L4-CV"/>
    <trip id="L4-CV-303" depart="683.58" from="left-approaching" to="left-exit" type="L4-CV"/>
    <trip id="L4-CV-304" depart="685.44" from="right-approaching" to="left-exit" type="L4-CV"/>
    <trip id="L4-CV-305" depart="687.30" from="top-approaching" to="right-exit" type="L4-CV"/>
    <trip id="L4-CV-306" depart="689.16" from="bottom-approaching" to="bottom-exit" type="L4-CV"/>
    <trip id="L4-CV-307" depart="691.02" from="right-approaching" to="bottom-exit" type="L4-CV"/>