<?xml version="1.0" encoding="UTF-8"?>
<!-- generated on 2021-03-03 20:37:23.108112 by $Id$ v1_8_0+0044-4820708f3d
  options: -n Roadworks/RoadworksIntersection.net.xml <doubleminus>fringe-factor 40 -r Roadworks/BaselineCAV/Route-Files/L4-CV-Route.rou.xml <doubleminus>trip-attributes=type="L4-CV" -l <doubleminus>prefix L4-CV- <doubleminus>seed 3 -p 1.25
-->
<routes xmlns:xsi="http://www.w3.org/2001/XMLSchema-instance" xsi:noNamespaceSchemaLocation="http://sumo.dlr.de/xsd/routes_file.xsd">
    <trip id="L4-CV-0" depart="0.00" from="bottom-approaching" to="right-exit" type="L4-CV"/>
    <trip id="L4-CV-1" depart="1.25" from="left-long-approaching" to="right-exit" type="L4-CV"/>
    <trip id="L4-CV-2" depart="2.50" from="right-approaching" to="bottom-exit" type="L4-CV"/>
    <trip id="L4-CV-3" depart="3.75" from="bottom-approaching" to="top-exit" type="L4-CV"/>
    <trip id="L4-CV-4" depart="5.00" from="left-long-approaching" to="bottom-exit" type="L4-CV"/>
    <trip id="L4-CV-5" depart="6.25" from="top-approaching" to="left-exit" type="L4-CV"/>
    <trip id="L4-CV-6" depart="7.50" from="top-approaching" to="left-exit" type="L4-CV"/>
    <trip id="L4-CV-7" depart="8.75" from="right-approaching" to="bottom-exit" type="L4-CV"/>
    <trip id="L4-CV-8" depart="10.00" from="right-approaching" to="top-exit" type="L4-CV"/>
    <trip id="L4-CV-9" depart="11.25" from="right-approaching" to="right-exit" type="L4-CV"/>
    <trip id="L4-CV-10" depart="12.50" from="right-approaching" to="bottom-exit" type="L4-CV"/>
    <trip id="L4-CV-11" depart="13.75" from="top-approaching" to="right-exit" type="L4-CV"/>
    <trip id="L4-CV-12" depart="15.00" from="left-long-approaching" to="bottom-exit" type="L4-CV"/>
    <trip id="L4-CV-13" depart="16.25" from="top-approaching" to="left-exit" type="L4-CV"/>
    <trip id="L4-CV-14" depart="17.50" from="right-approaching" to="top-exit" type="L4-CV"/>
    <trip id="L4-CV-15" depart="18.75" from="right-approaching" to="top-exit" type="L4-CV"/>
    <trip id="L4-CV-16" depart="20.00" from="left-long-approaching" to="top-exit" type="L4-CV"/>
    <trip id="L4-CV-17" depart="21.25" from="left-long-approaching" to="top-exit" type="L4-CV"/>
    <trip id="L4-CV-18" depart="22.50" from="top-approaching" to="bottom-exit" type="L4-CV"/>
    <trip id="L4-CV-19" depart="23.75" from="bottom-approaching" to="bottom-exit" type="L4-CV"/>
    <trip id="L4-CV-20" depart="25.00" from="top-approaching" to="left-exit" type="L4-CV"/>
    <trip id="L4-CV-21" depart="26.25" from="right-approaching" to="left-exit" type="L4-CV"/>
    <trip id="L4-CV-22" depart="27.50" from="right-approaching" to="left-exit" type="L4-CV"/>
    <trip id="L4-CV-23" depart="28.75" from="left-long-approaching" to="right-exit" type="L4-CV"/>
    <trip id="L4-CV-24" depart="30.00" from="right-approaching" to="top-exit" type="L4-CV"/>
    <trip id="L4-CV-25" depart="31.25" from="right-approaching" to="top-exit" type="L4-CV"/>
    <trip id="L4-CV-26" depart="32.50" from="top-approaching" to="top-exit" type="L4-CV"/>
    <trip id="L4-CV-27" depart="33.75" from="right-approaching" to="bottom-exit" type="L4-CV"/>
    <trip id="L4-CV-28" depart="35.00" from="top-approaching" to="top-exit" type="L4-CV"/>
    <trip id="L4-CV-29" depart="36.25" from="top-approaching" to="right-exit" type="L4-CV"/>
    <trip id="L4-CV-30" depart="37.50" from="right-approaching" to="bottom-exit" type="L4-CV"/>
    <trip id="L4-CV-31" depart="38.75" from="top-approaching" to="right-exit" type="L4-CV"/>
    <trip id="L4-CV-32" depart="40.00" from="left-long-approaching" to="bottom-exit" type="L4-CV"/>
    <trip id="L4-CV-33" depart="41.25" from="top-approaching" to="top-exit" type="L4-CV"/>
    <trip id="L4-CV-34" depart="42.50" from="bottom-approaching" to="top-exit" type="L4-CV"/>
    <trip id="L4-CV-35" depart="43.75" from="left-long-approaching" to="bottom-exit" type="L4-CV"/>
    <trip id="L4-CV-36" depart="45.00" from="left-long-approaching" to="top-exit" type="L4-CV"/>
    <trip id="L4-CV-37" depart="46.25" from="top-approaching" to="bottom-exit" type="L4-CV"/>
    <trip id="L4-CV-38" depart="47.50" from="right-approaching" to="bottom-exit" type="L4-CV"/>
    <trip id="L4-CV-39" depart="48.75" from="right-approaching" to="left-exit" type="L4-CV"/>
    <trip id="L4-CV-40" depart="50.00" from="top-approaching" to="top-exit" type="L4-CV"/>
    <trip id="L4-CV-41" depart="51.25" from="right-approaching" to="top-exit" type="L4-CV"/>
    <trip id="L4-CV-42" depart="52.50" from="left-long-approaching" to="bottom-exit" type="L4-CV"/>
    <trip id="L4-CV-43" depart="53.75" from="right-approaching" to="bottom-exit" type="L4-CV"/>
    <trip id="L4-CV-44" depart="55.00" from="bottom-approaching" to="left-exit" type="L4-CV"/>
    <trip id="L4-CV-45" depart="56.25" from="right-approaching" to="bottom-exit" type="L4-CV"/>
    <trip id="L4-CV-46" depart="57.50" from="bottom-approaching" to="top-exit" type="L4-CV"/>
    <trip id="L4-CV-47" depart="58.75" from="left-long-approaching" to="top-exit" type="L4-CV"/>
    <trip id="L4-CV-48" depart="60.00" from="top-approaching" to="left-exit" type="L4-CV"/>
    <trip id="L4-CV-49" depart="61.25" from="left-long-approaching" to="right-exit" type="L4-CV"/>
    <trip id="L4-CV-50" depart="62.50" from="right-approaching" to="right-exit" type="L4-CV"/>
    <trip id="L4-CV-51" depart="63.75" from="right-approaching" to="right-exit" type="L4-CV"/>
    <trip id="L4-CV-52" depart="65.00" from="top-approaching" to="right-exit" type="L4-CV"/>
    <trip id="L4-CV-53" depart="66.25" from="left-long-approaching" to="right-exit" type="L4-CV"/>
    <trip id="L4-CV-54" depart="67.50" from="bottom-approaching" to="left-exit" type="L4-CV"/>
    <trip id="L4-CV-55" depart="68.75" from="top-approaching" to="right-exit" type="L4-CV"/>
    <trip id="L4-CV-56" depart="70.00" from="right-approaching" to="bottom-exit" type="L4-CV"/>
    <trip id="L4-CV-57" depart="71.25" from="left-long-approaching" to="right-exit" type="L4-CV"/>
    <trip id="L4-CV-58" depart="72.50" from="bottom-approaching" to="right-exit" type="L4-CV"/>
    <trip id="L4-CV-59" depart="73.75" from="right-approaching" to="bottom-exit" type="L4-CV"/>
    <trip id="L4-CV-60" depart="75.00" from="right-approaching" to="left-exit" type="L4-CV"/>
    <trip id="L4-CV-61" depart="76.25" from="right-approaching" to="left-exit" type="L4-CV"/>
    <trip id="L4-CV-62" depart="77.50" from="right-approaching" to="right-exit" type="L4-CV"/>
    <trip id="L4-CV-63" depart="78.75" from="bottom-approaching" to="bottom-exit" type="L4-CV"/>
    <trip id="L4-CV-64" depart="80.00" from="right-approaching" to="top-exit" type="L4-CV"/>
    <trip id="L4-CV-65" depart="81.25" from="left-long-approaching" to="left-exit" type="L4-CV"/>
    <trip id="L4-CV-66" depart="82.50" from="right-approaching" to="left-exit" type="L4-CV"/>
    <trip id="L4-CV-67" depart="83.75" from="left-long-approaching" to="left-exit" type="L4-CV"/>
    <trip id="L4-CV-68" depart="85.00" from="left-long-approaching" to="right-exit" type="L4-CV"/>
    <trip id="L4-CV-69" depart="86.25" from="left-long-approaching" to="left-exit" type="L4-CV"/>
    <trip id="L4-CV-70" depart="87.50" from="top-approaching" to="bottom-exit" type="L4-CV"/>
    <trip id="L4-CV-71" depart="88.75" from="right-approaching" to="right-exit" type="L4-CV"/>
    <trip id="L4-CV-72" depart="90.00" from="left-long-approaching" to="bottom-exit" type="L4-CV"/>
    <trip id="L4-CV-73" depart="91.25" from="top-approaching" to="bottom-exit" type="L4-CV"/>
    <trip id="L4-CV-74" depart="92.50" from="bottom-approaching" to="left-exit" type="L4-CV"/>
    <trip id="L4-CV-75" depart="93.75" from="right-approaching" to="bottom-exit" type="L4-CV"/>
    <trip id="L4-CV-76" depart="95.00" from="left-long-approaching" to="left-exit" type="L4-CV"/>
    <trip id="L4-CV-77" depart="96.25" from="top-approaching" to="left-exit" type="L4-CV"/>
    <trip id="L4-CV-78" depart="97.50" from="top-approaching" to="bottom-exit" type="L4-CV"/>
    <trip id="L4-CV-79" depart="98.75" from="left-long-approaching" to="right-exit" type="L4-CV"/>
    <trip id="L4-CV-80" depart="100.00" from="top-approaching" to="left-exit" type="L4-CV"/>
    <trip id="L4-CV-81" depart="101.25" from="bottom-approaching" to="bottom-exit" type="L4-CV"/>
    <trip id="L4-CV-82" depart="102.50" from="right-approaching" to="bottom-exit" type="L4-CV"/>
    <trip id="L4-CV-83" depart="103.75" from="top-approaching" to="top-exit" type="L4-CV"/>
    <trip id="L4-CV-84" depart="105.00" from="bottom-approaching" to="left-exit" type="L4-CV"/>
    <trip id="L4-CV-85" depart="106.25" from="top-approaching" to="right-exit" type="L4-CV"/>
    <trip id="L4-CV-86" depart="107.50" from="top-approaching" to="left-exit" type="L4-CV"/>
    <trip id="L4-CV-87" depart="108.75" from="bottom-approaching" to="left-exit" type="L4-CV"/>
    <trip id="L4-CV-88" depart="110.00" from="top-approaching" to="left-exit" type="L4-CV"/>
    <trip id="L4-CV-89" depart="111.25" from="left-long-approaching" to="left-exit" type="L4-CV"/>
    <trip id="L4-CV-90" depart="112.50" from="left-long-approaching" to="left-exit" type="L4-CV"/>
    <trip id="L4-CV-91" depart="113.75" from="top-approaching" to="bottom-exit" type="L4-CV"/>
    <trip id="L4-CV-92" depart="115.00" from="bottom-approaching" to="top-exit" type="L4-CV"/>
    <trip id="L4-CV-93" depart="116.25" from="top-approaching" to="top-exit" type="L4-CV"/>
    <trip id="L4-CV-94" depart="117.50" from="left-long-approaching" to="top-exit" type="L4-CV"/>
    <trip id="L4-CV-95" depart="118.75" from="top-approaching" to="bottom-exit" type="L4-CV"/>
    <trip id="L4-CV-96" depart="120.00" from="right-approaching" to="top-exit" type="L4-CV"/>
    <trip id="L4-CV-97" depart="121.25" from="right-approaching" to="right-exit" type="L4-CV"/>
    <trip id="L4-CV-98" depart="122.50" from="left-long-approaching" to="left-exit" type="L4-CV"/>
    <trip id="L4-CV-99" depart="123.75" from="bottom-approaching" to="bottom-exit" type="L4-CV"/>
    <trip id="L4-CV-100" depart="125.00" from="right-approaching" to="left-exit" type="L4-CV"/>
    <trip id="L4-CV-101" depart="126.25" from="top-approaching" to="bottom-exit" type="L4-CV"/>
    <trip id="L4-CV-102" depart="127.50" from="top-approaching" to="right-exit" type="L4-CV"/>
    <trip id="L4-CV-103" depart="128.75" from="top-approaching" to="top-exit" type="L4-CV"/>
    <trip id="L4-CV-104" depart="130.00" from="top-approaching" to="right-exit" type="L4-CV"/>
    <trip id="L4-CV-105" depart="131.25" from="bottom-approaching" to="right-exit" type="L4-CV"/>
    <trip id="L4-CV-106" depart="132.50" from="bottom-approaching" to="left-exit" type="L4-CV"/>
    <trip id="L4-CV-107" depart="133.75" from="right-approaching" to="right-exit" type="L4-CV"/>
    <trip id="L4-CV-108" depart="135.00" from="left-long-approaching" to="top-exit" type="L4-CV"/>
    <trip id="L4-CV-109" depart="136.25" from="right-approaching" to="left-exit" type="L4-CV"/>
    <trip id="L4-CV-110" depart="137.50" from="left-long-approaching" to="top-exit" type="L4-CV"/>
    <trip id="L4-CV-111" depart="138.75" from="left-long-approaching" to="top-exit" type="L4-CV"/>
    <trip id="L4-CV-112" depart="140.00" from="left-long-approaching" to="bottom-exit" type="L4-CV"/>
    <trip id="L4-CV-113" depart="141.25" from="right-approaching" to="top-exit" type="L4-CV"/>
    <trip id="L4-CV-114" depart="142.50" from="bottom-approaching" to="top-exit" type="L4-CV"/>
    <trip id="L4-CV-115" depart="143.75" from="top-approaching" to="top-exit" type="L4-CV"/>
    <trip id="L4-CV-116" depart="145.00" from="top-approaching" to="bottom-exit" type="L4-CV"/>
    <trip id="L4-CV-117" depart="146.25" from="right-approaching" to="top-exit" type="L4-CV"/>
    <trip id="L4-CV-118" depart="147.50" from="bottom-approaching" to="left-exit" type="L4-CV"/>
    <trip id="L4-CV-119" depart="148.75" from="left-long-approaching" to="right-exit" type="L4-CV"/>
    <trip id="L4-CV-120" depart="150.00" from="left-long-approaching" to="left-exit" type="L4-CV"/>
    <trip id="L4-CV-121" depart="151.25" from="top-approaching" to="bottom-exit" type="L4-CV"/>
    <trip id="L4-CV-122" depart="152.50" from="bottom-approaching" to="bottom-exit" type="L4-CV"/>
    <trip id="L4-CV-123" depart="153.75" from="bottom-approaching" to="bottom-exit" type="L4-CV"/>
    <trip id="L4-CV-124" depart="155.00" from="top-approaching" to="top-exit" type="L4-CV"/>
    <trip id="L4-CV-125" depart="156.25" from="bottom-approaching" to="preparation" type="L4-CV"/>
    <trip id="L4-CV-126" depart="157.50" from="left-long-approaching" to="left-exit" type="L4-CV"/>
    <trip id="L4-CV-127" depart="158.75" from="left-long-approaching" to="right-exit" type="L4-CV"/>
    <trip id="L4-CV-128" depart="160.00" from="right-approaching" to="left-exit" type="L4-CV"/>
    <trip id="L4-CV-129" depart="161.25" from="bottom-approaching" to="left-exit" type="L4-CV"/>
    <trip id="L4-CV-130" depart="162.50" from="bottom-approaching" to="right-exit" type="L4-CV"/>
    <trip id="L4-CV-131" depart="163.75" from="right-approaching" to="left-exit" type="L4-CV"/>
    <trip id="L4-CV-132" depart="165.00" from="bottom-approaching" to="bottom-exit" type="L4-CV"/>
    <trip id="L4-CV-133" depart="166.25" from="left-long-approaching" to="right-exit" type="L4-CV"/>
    <trip id="L4-CV-134" depart="167.50" from="top-approaching" to="left-exit" type="L4-CV"/>
    <trip id="L4-CV-135" depart="168.75" from="top-approaching" to="right-exit" type="L4-CV"/>
    <trip id="L4-CV-136" depart="170.00" from="left-long-approaching" to="left-exit" type="L4-CV"/>
    <trip id="L4-CV-137" depart="171.25" from="left-long-approaching" to="right-exit" type="L4-CV"/>
    <trip id="L4-CV-138" depart="172.50" from="left-long-approaching" to="right-exit" type="L4-CV"/>
    <trip id="L4-CV-139" depart="173.75" from="left-long-approaching" to="bottom-exit" type="L4-CV"/>
    <trip id="L4-CV-140" depart="175.00" from="right-approaching" to="right-exit" type="L4-CV"/>
    <trip id="L4-CV-141" depart="176.25" from="bottom-approaching" to="left-exit" type="L4-CV"/>
    <trip id="L4-CV-142" depart="177.50" from="left-long-approaching" to="top-exit" type="L4-CV"/>
    <trip id="L4-CV-143" depart="178.75" from="top-approaching" to="left-exit" type="L4-CV"/>
    <trip id="L4-CV-144" depart="180.00" from="top-approaching" to="top-exit" type="L4-CV"/>
    <trip id="L4-CV-145" depart="181.25" from="left-long-approaching" to="left-exit" type="L4-CV"/>
    <trip id="L4-CV-146" depart="182.50" from="bottom-approaching" to="top-exit" type="L4-CV"/>
    <trip id="L4-CV-147" depart="183.75" from="right-approaching" to="top-exit" type="L4-CV"/>
    <trip id="L4-CV-148" depart="185.00" from="top-approaching" to="right-exit" type="L4-CV"/>
    <trip id="L4-CV-149" depart="186.25" from="right-approaching" to="right-exit" type="L4-CV"/>
    <trip id="L4-CV-150" depart="187.50" from="bottom-approaching" to="right-exit" type="L4-CV"/>
    <trip id="L4-CV-151" depart="188.75" from="bottom-approaching" to="bottom-exit" type="L4-CV"/>
    <trip id="L4-CV-152" depart="190.00" from="top-approaching" to="bottom-exit" type="L4-CV"/>
    <trip id="L4-CV-153" depart="191.25" from="bottom-approaching" to="bottom-exit" type="L4-CV"/>
    <trip id="L4-CV-154" depart="192.50" from="top-approaching" to="bottom-exit" type="L4-CV"/>
    <trip id="L4-CV-155" depart="193.75" from="bottom-approaching" to="top-exit" type="L4-CV"/>
    <trip id="L4-CV-156" depart="195.00" from="bottom-approaching" to="top-exit" type="L4-CV"/>
    <trip id="L4-CV-157" depart="196.25" from="right-approaching" to="top-exit" type="L4-CV"/>
    <trip id="L4-CV-158" depart="197.50" from="top-approaching" to="right-exit" type="L4-CV"/>
    <trip id="L4-CV-159" depart="198.75" from="top-approaching" to="bottom-exit" type="L4-CV"/>
    <trip id="L4-CV-160" depart="200.00" from="top-approaching" to="right-exit" type="L4-CV"/>
    <trip id="L4-CV-161" depart="201.25" from="right-approaching" to="bottom-exit" type="L4-CV"/>
    <trip id="L4-CV-162" depart="202.50" from="right-approaching" to="top-exit" type="L4-CV"/>
    <trip id="L4-CV-163" depart="203.75" from="bottom-approaching" to="left-exit" type="L4-CV"/>
    <trip id="L4-CV-164" depart="205.00" from="right-approaching" to="top-exit" type="L4-CV"/>
    <trip id="L4-CV-165" depart="206.25" from="bottom-approaching" to="bottom-exit" type="L4-CV"/>
    <trip id="L4-CV-166" depart="207.50" from="left-long-approaching" to="right-exit" type="L4-CV"/>
    <trip id="L4-CV-167" depart="208.75" from="top-approaching" to="left-exit" type="L4-CV"/>
    <trip id="L4-CV-168" depart="210.00" from="left-long-approaching" to="left-exit" type="L4-CV"/>
    <trip id="L4-CV-169" depart="211.25" from="left-long-approaching" to="left-exit" type="L4-CV"/>
    <trip id="L4-CV-170" depart="212.50" from="bottom-approaching" to="preparation" type="L4-CV"/>
    <trip id="L4-CV-171" depart="213.75" from="top-approaching" to="left-exit" type="L4-CV"/>
    <trip id="L4-CV-172" depart="215.00" from="right-approaching" to="bottom-exit" type="L4-CV"/>
    <trip id="L4-CV-173" depart="216.25" from="right-approaching" to="top-exit" type="L4-CV"/>
    <trip id="L4-CV-174" depart="217.50" from="right-approaching" to="right-exit" type="L4-CV"/>
    <trip id="L4-CV-175" depart="218.75" from="left-long-approaching" to="right-exit" type="L4-CV"/>
    <trip id="L4-CV-176" depart="220.00" from="top-approaching" to="bottom-exit" type="L4-CV"/>
    <trip id="L4-CV-177" depart="221.25" from="bottom-approaching" to="right-exit" type="L4-CV"/>
    <trip id="L4-CV-178" depart="222.50" from="top-approaching" to="right-exit" type="L4-CV"/>
    <trip id="L4-CV-179" depart="223.75" from="left-long-approaching" to="right-exit" type="L4-CV"/>
    <trip id="L4-CV-180" depart="225.00" from="bottom-approaching" to="left-exit" type="L4-CV"/>
    <trip id="L4-CV-181" depart="226.25" from="bottom-approaching" to="right-exit" type="L4-CV"/>
    <trip id="L4-CV-182" depart="227.50" from="left-long-approaching" to="bottom-exit" type="L4-CV"/>
    <trip id="L4-CV-183" depart="228.75" from="right-approaching" to="top-exit" type="L4-CV"/>
    <trip id="L4-CV-184" depart="230.00" from="left-long-approaching" to="right-exit" type="L4-CV"/>
    <trip id="L4-CV-185" depart="231.25" from="left-long-approaching" to="top-exit" type="L4-CV"/>
    <trip id="L4-CV-186" depart="232.50" from="right-approaching" to="left-exit" type="L4-CV"/>
    <trip id="L4-CV-187" depart="233.75" from="bottom-approaching" to="bottom-exit" type="L4-CV"/>
    <trip id="L4-CV-188" depart="235.00" from="left-long-approaching" to="left-exit" type="L4-CV"/>
    <trip id="L4-CV-189" depart="236.25" from="bottom-approaching" to="left-exit" type="L4-CV"/>
    <trip id="L4-CV-190" depart="237.50" from="left-long-approaching" to="top-exit" type="L4-CV"/>
    <trip id="L4-CV-191" depart="238.75" from="bottom-approaching" to="top-exit" type="L4-CV"/>
    <trip id="L4-CV-192" depart="240.00" from="left-long-approaching" to="right-exit" type="L4-CV"/>
    <trip id="L4-CV-193" depart="241.25" from="left-long-approaching" to="top-exit" type="L4-CV"/>
    <trip id="L4-CV-194" depart="242.50" from="top-approaching" to="right-exit" type="L4-CV"/>
    <trip id="L4-CV-195" depart="243.75" from="left-long-approaching" to="right-exit" type="L4-CV"/>
    <trip id="L4-CV-196" depart="245.00" from="top-approaching" to="left-exit" type="L4-CV"/>
    <trip id="L4-CV-197" depart="246.25" from="right-approaching" to="top-exit" type="L4-CV"/>
    <trip id="L4-CV-198" depart="247.50" from="left-long-approaching" to="bottom-exit" type="L4-CV"/>
    <trip id="L4-CV-199" depart="248.75" from="bottom-approaching" to="right-exit" type="L4-CV"/>
    <trip id="L4-CV-200" depart="250.00" from="right-approaching" to="top-exit" type="L4-CV"/>
    <trip id="L4-CV-201" depart="251.25" from="top-approaching" to="bottom-exit" type="L4-CV"/>
    <trip id="L4-CV-202" depart="252.50" from="bottom-approaching" to="left-exit" type="L4-CV"/>
    <trip id="L4-CV-203" depart="253.75" from="bottom-approaching" to="right-exit" type="L4-CV"/>
    <trip id="L4-CV-204" depart="255.00" from="top-approaching" to="top-exit" type="L4-CV"/>
    <trip id="L4-CV-205" depart="256.25" from="left-long-approaching" to="top-exit" type="L4-CV"/>
    <trip id="L4-CV-206" depart="257.50" from="left-long-approaching" to="left-exit" type="L4-CV"/>
    <trip id="L4-CV-207" depart="258.75" from="right-approaching" to="bottom-exit" type="L4-CV"/>
    <trip id="L4-CV-208" depart="260.00" from="bottom-approaching" to="top-exit" type="L4-CV"/>
    <trip id="L4-CV-209" depart="261.25" from="left-long-approaching" to="left-exit" type="L4-CV"/>
    <trip id="L4-CV-210" depart="262.50" from="right-approaching" to="right-exit" type="L4-CV"/>
    <trip id="L4-CV-211" depart="263.75" from="bottom-approaching" to="left-exit" type="L4-CV"/>
    <trip id="L4-CV-212" depart="265.00" from="left-long-approaching" to="left-exit" type="L4-CV"/>
    <trip id="L4-CV-213" depart="266.25" from="bottom-approaching" to="right-exit" type="L4-CV"/>
    <trip id="L4-CV-214" depart="267.50" from="top-approaching" to="left-exit" type="L4-CV"/>
    <trip id="L4-CV-215" depart="268.75" from="right-approaching" to="bottom-exit" type="L4-CV"/>
    <trip id="L4-CV-216" depart="270.00" from="left-long-approaching" to="right-exit" type="L4-CV"/>
    <trip id="L4-CV-217" depart="271.25" from="bottom-approaching" to="top-exit" type="L4-CV"/>
    <trip id="L4-CV-218" depart="272.50" from="top-approaching" to="bottom-exit" type="L4-CV"/>
    <trip id="L4-CV-219" depart="273.75" from="top-approaching" to="left-exit" type="L4-CV"/>
    <trip id="L4-CV-220" depart="275.00" from="top-approaching" to="top-exit" type="L4-CV"/>
    <trip id="L4-CV-221" depart="276.25" from="left-long-approaching" to="right-exit" type="L4-CV"/>
    <trip id="L4-CV-222" depart="277.50" from="right-approaching" to="top-exit" type="L4-CV"/>
    <trip id="L4-CV-223" depart="278.75" from="left-long-approaching" to="top-exit" type="L4-CV"/>
    <trip id="L4-CV-224" depart="280.00" from="top-approaching" to="right-exit" type="L4-CV"/>
    <trip id="L4-CV-225" depart="281.25" from="right-approaching" to="bottom-exit" type="L4-CV"/>
    <trip id="L4-CV-226" depart="282.50" from="left-long-approaching" to="left-exit" type="L4-CV"/>
    <trip id="L4-CV-227" depart="283.75" from="right-approaching" to="right-exit" type="L4-CV"/>
    <trip id="L4-CV-228" depart="285.00" from="right-approaching" to="bottom-exit" type="L4-CV"/>
    <trip id="L4-CV-229" depart="286.25" from="right-approaching" to="right-exit" type="L4-CV"/>
    <trip id="L4-CV-230" depart="287.50" from="bottom-approaching" to="top-exit" type="L4-CV"/>
    <trip id="L4-CV-231" depart="288.75" from="right-approaching" to="bottom-exit" type="L4-CV"/>
    <trip id="L4-CV-232" depart="290.00" from="top-approaching" to="bottom-exit" type="L4-CV"/>
    <trip id="L4-CV-233" depart="291.25" from="left-long-approaching" to="right-exit" type="L4-CV"/>
    <trip id="L4-CV-234" depart="292.50" from="right-approaching" to="right-exit" type="L4-CV"/>
    <trip id="L4-CV-235" depart="293.75" from="right-approaching" to="left-exit" type="L4-CV"/>
    <trip id="L4-CV-236" depart="295.00" from="left-long-approaching" to="bottom-exit" type="L4-CV"/>
    <trip id="L4-CV-237" depart="296.25" from="bottom-approaching" to="right-exit" type="L4-CV"/>
    <trip id="L4-CV-238" depart="297.50" from="top-approaching" to="right-exit" type="L4-CV"/>
    <trip id="L4-CV-239" depart="298.75" from="right-approaching" to="left-exit" type="L4-CV"/>
    <trip id="L4-CV-240" depart="300.00" from="left-long-approaching" to="left-exit" type="L4-CV"/>
    <trip id="L4-CV-241" depart="301.25" from="top-approaching" to="bottom-exit" type="L4-CV"/>
    <trip id="L4-CV-242" depart="302.50" from="preparation" to="bottom-exit" type="L4-CV"/>
    <trip id="L4-CV-243" depart="303.75" from="top-approaching" to="left-exit" type="L4-CV"/>
    <trip id="L4-CV-244" depart="305.00" from="left-long-approaching" to="left-exit" type="L4-CV"/>
    <trip id="L4-CV-245" depart="306.25" from="right-approaching" to="top-exit" type="L4-CV"/>
    <trip id="L4-CV-246" depart="307.50" from="left-long-approaching" to="top-exit" type="L4-CV"/>
    <trip id="L4-CV-247" depart="308.75" from="bottom-approaching" to="left-exit" type="L4-CV"/>
    <trip id="L4-CV-248" depart="310.00" from="bottom-approaching" to="bottom-exit" type="L4-CV"/>
    <trip id="L4-CV-249" depart="311.25" from="top-approaching" to="right-exit" type="L4-CV"/>
    <trip id="L4-CV-250" depart="312.50" from="bottom-approaching" to="bottom-exit" type="L4-CV"/>
    <trip id="L4-CV-251" depart="313.75" from="left-long-approaching" to="right-exit" type="L4-CV"/>
    <trip id="L4-CV-252" depart="315.00" from="top-approaching" to="right-exit" type="L4-CV"/>
    <trip id="L4-CV-253" depart="316.25" from="right-approaching" to="bottom-exit" type="L4-CV"/>
    <trip id="L4-CV-254" depart="317.50" from="left-long-approaching" to="bottom-exit" type="L4-CV"/>
    <trip id="L4-CV-255" depart="318.75" from="right-approaching" to="right-exit" type="L4-CV"/>
    <trip id="L4-CV-256" depart="320.00" from="bottom-approaching" to="left-exit" type="L4-CV"/>
    <trip id="L4-CV-257" depart="321.25" from="top-approaching" to="bottom-exit" type="L4-CV"/>
    <trip id="L4-CV-258" depart="322.50" from="top-approaching" to="top-exit" type="L4-CV"/>
    <trip id="L4-CV-259" depart="323.75" from="top-approaching" to="left-exit" type="L4-CV"/>
    <trip id="L4-CV-260" depart="325.00" from="right-approaching" to="right-exit" type="L4-CV"/>
    <trip id="L4-CV-261" depart="326.25" from="right-approaching" to="top-exit" type="L4-CV"/>
    <trip id="L4-CV-262" depart="327.50" from="right-approaching" to="left-exit" type="L4-CV"/>
    <trip id="L4-CV-263" depart="328.75" from="top-approaching" to="left-exit" type="L4-CV"/>
    <trip id="L4-CV-264" depart="330.00" from="right-approaching" to="right-exit" type="L4-CV"/>
    <trip id="L4-CV-265" depart="331.25" from="bottom-approaching" to="top-exit" type="L4-CV"/>
    <trip id="L4-CV-266" depart="332.50" from="right-approaching" to="left-exit" type="L4-CV"/>
    <trip id="L4-CV-267" depart="333.75" from="right-approaching" to="left-exit" type="L4-CV"/>
    <trip id="L4-CV-268" depart="335.00" from="bottom-approaching" to="right-exit" type="L4-CV"/>
    <trip id="L4-CV-269" depart="336.25" from="bottom-approaching" to="preparation" type="L4-CV"/>
    <trip id="L4-CV-270" depart="337.50" from="right-approaching" to="left-exit" type="L4-CV"/>
    <trip id="L4-CV-271" depart="338.75" from="right-approaching" to="top-exit" type="L4-CV"/>
    <trip id="L4-CV-272" depart="340.00" from="top-approaching" to="bottom-exit" type="L4-CV"/>
    <trip id="L4-CV-273" depart="341.25" from="top-approaching" to="right-exit" type="L4-CV"/>
    <trip id="L4-CV-274" depart="342.50" from="bottom-approaching" to="left-exit" type="L4-CV"/>
    <trip id="L4-CV-275" depart="343.75" from="bottom-approaching" to="bottom-exit" type="L4-CV"/>
    <trip id="L4-CV-276" depart="345.00" from="right-approaching" to="top-exit" type="L4-CV"/>
    <trip id="L4-CV-277" depart="346.25" from="left-long-approaching" to="top-exit" type="L4-CV"/>
    <trip id="L4-CV-278" depart="347.50" from="right-approaching" to="bottom-exit" type="L4-CV"/>
    <trip id="L4-CV-279" depart="348.75" from="top-approaching" to="right-exit" type="L4-CV"/>
    <trip id="L4-CV-280" depart="350.00" from="top-approaching" to="right-exit" type="L4-CV"/>
    <trip id="L4-CV-281" depart="351.25" from="right-approaching" to="left-exit" type="L4-CV"/>
    <trip id="L4-CV-282" depart="352.50" from="top-approaching" to="top-exit" type="L4-CV"/>
    <trip id="L4-CV-283" depart="353.75" from="top-approaching" to="left-exit" type="L4-CV"/>
    <trip id="L4-CV-284" depart="355.00" from="top-approaching" to="left-exit" type="L4-CV"/>
    <trip id="L4-CV-285" depart="356.25" from="bottom-approaching" to="bottom-exit" type="L4-CV"/>
    <trip id="L4-CV-286" depart="357.50" from="bottom-approaching" to="bottom-exit" type="L4-CV"/>
    <trip id="L4-CV-287" depart="358.75" from="bottom-approaching" to="left-short-approaching" type="L4-CV"/>
    <trip id="L4-CV-288" depart="360.00" from="right-approaching" to="right-exit" type="L4-CV"/>
    <trip id="L4-CV-289" depart="361.25" from="left-long-approaching" to="right-exit" type="L4-CV"/>
    <trip id="L4-CV-290" depart="362.50" from="left-long-approaching" to="left-exit" type="L4-CV"/>
    <trip id="L4-CV-291" depart="363.75" from="top-approaching" to="left-exit" type="L4-CV"/>
    <trip id="L4-CV-292" depart="365.00" from="bottom-approaching" to="top-exit" type="L4-CV"/>
    <trip id="L4-CV-293" depart="366.25" from="right-approaching" to="left-exit" type="L4-CV"/>
    <trip id="L4-CV-294" depart="367.50" from="left-long-approaching" to="right-exit" type="L4-CV"/>
    <trip id="L4-CV-295" depart="368.75" from="right-approaching" to="bottom-exit" type="L4-CV"/>
    <trip id="L4-CV-296" depart="370.00" from="bottom-approaching" to="bottom-exit" type="L4-CV"/>
    <trip id="L4-CV-297" depart="371.25" from="top-approaching" to="bottom-exit" type="L4-CV"/>
    <trip id="L4-CV-298" depart="372.50" from="left-long-approaching" to="bottom-exit" type="L4-CV"/>
    <trip id="L4-CV-299" depart="373.75" from="bottom-approaching" to="bottom-exit" type="L4-CV"/>
    <trip id="L4-CV-300" depart="375.00" from="left-long-approaching" to="bottom-exit" type="L4-CV"/>
    <trip id="L4-CV-301" depart="376.25" from="bottom-approaching" to="bottom-exit" type="L4-CV"/>
    <trip id="L4-CV-302" depart="377.50" from="bottom-approaching" to="left-exit" type="L4-CV"/>
    <trip id="L4-CV-303" depart="378.75" from="bottom-approaching" to="bottom-exit" type="L4-CV"/>
    <trip id="L4-CV-304" depart="380.00" from="left-long-approaching" to="left-exit" type="L4-CV"/>