<?xml version="1.0" encoding="UTF-8"?>
<!-- generated on 2021-03-16 15:20:25.605113 by $Id$ v1_8_0+0044-4820708f3d
  options: -n Roadworks/RoadworksIntersection.net.xml <doubleminus>fringe-factor 40 -r Roadworks/BaselineHDV/Route-Files/L0-HDV-Route.rou.xml <doubleminus>trip-attributes=type="L0-HDV" -l <doubleminus>prefix L0-HDV- <doubleminus>seed 0 -p 1.25
-->
<routes xmlns:xsi="http://www.w3.org/2001/XMLSchema-instance" xsi:noNamespaceSchemaLocation="http://sumo.dlr.de/xsd/routes_file.xsd">
    <trip id="L0-HDV-0" depart="0.00" from="top-approaching" to="top-exit" type="L0-HDV"/>
    <trip id="L0-HDV-1" depart="1.25" from="left-long-approaching" to="left-exit" type="L0-HDV"/>
    <trip id="L0-HDV-2" depart="2.50" from="right-approaching" to="left-exit" type="L0-HDV"/>
    <trip id="L0-HDV-3" depart="3.75" from="top-approaching" to="left-exit" type="L0-HDV"/>
    <trip id="L0-HDV-4" depart="5.00" from="left-long-approaching" to="right-exit" type="L0-HDV"/>
    <trip id="L0-HDV-5" depart="6.25" from="top-approaching" to="right-exit" type="L0-HDV"/>
    <trip id="L0-HDV-6" depart="7.50" from="left-long-approaching" to="top-exit" type="L0-HDV"/>
    <trip id="L0-HDV-7" depart="8.75" from="right-approaching" to="left-exit" type="L0-HDV"/>
    <trip id="L0-HDV-8" depart="10.00" from="top-approaching" to="top-exit" type="L0-HDV"/>
    <trip id="L0-HDV-9" depart="11.25" from="top-approaching" to="top-exit" type="L0-HDV"/>
    <trip id="L0-HDV-10" depart="12.50" from="left-long-approaching" to="right-exit" type="L0-HDV"/>
    <trip id="L0-HDV-11" depart="13.75" from="top-approaching" to="right-exit" type="L0-HDV"/>
    <trip id="L0-HDV-12" depart="15.00" from="left-long-approaching" to="bottom-exit" type="L0-HDV"/>
    <trip id="L0-HDV-13" depart="16.25" from="left-long-approaching" to="right-exit" type="L0-HDV"/>
    <trip id="L0-HDV-14" depart="17.50" from="top-approaching" to="top-exit" type="L0-HDV"/>
    <trip id="L0-HDV-15" depart="18.75" from="left-long-approaching" to="top-exit" type="L0-HDV"/>
    <trip id="L0-HDV-16" depart="20.00" from="left-long-approaching" to="top-exit" type="L0-HDV"/>
    <trip id="L0-HDV-17" depart="21.25" from="right-approaching" to="bottom-exit" type="L0-HDV"/>
    <trip id="L0-HDV-18" depart="22.50" from="right-approaching" to="left-exit" type="L0-HDV"/>
    <trip id="L0-HDV-19" depart="23.75" from="top-approaching" to="right-exit" type="L0-HDV"/>
    <trip id="L0-HDV-20" depart="25.00" from="bottom-approaching" to="left-exit" type="L0-HDV"/>
    <trip id="L0-HDV-21" depart="26.25" from="top-approaching" to="bottom-exit" type="L0-HDV"/>
    <trip id="L0-HDV-22" depart="27.50" from="left-long-approaching" to="top-exit" type="L0-HDV"/>
    <trip id="L0-HDV-23" depart="28.75" from="bottom-approaching" to="right-exit" type="L0-HDV"/>
    <trip id="L0-HDV-24" depart="30.00" from="bottom-approaching" to="top-exit" type="L0-HDV"/>
    <trip id="L0-HDV-25" depart="31.25" from="top-approaching" to="left-exit" type="L0-HDV"/>
    <trip id="L0-HDV-26" depart="32.50" from="bottom-approaching" to="left-exit" type="L0-HDV"/>
    <trip id="L0-HDV-27" depart="33.75" from="right-approaching" to="top-exit" type="L0-HDV"/>
    <trip id="L0-HDV-28" depart="35.00" from="bottom-approaching" to="right-exit" type="L0-HDV"/>
    <trip id="L0-HDV-29" depart="36.25" from="right-approaching" to="right-exit" type="L0-HDV"/>
    <trip id="L0-HDV-30" depart="37.50" from="top-approaching" to="right-exit" type="L0-HDV"/>
    <trip id="L0-HDV-31" depart="38.75" from="top-approaching" to="right-exit" type="L0-HDV"/>
    <trip id="L0-HDV-32" depart="40.00" from="right-approaching" to="left-exit" type="L0-HDV"/>
    <trip id="L0-HDV-33" depart="41.25" from="right-approaching" to="left-exit" type="L0-HDV"/>
    <trip id="L0-HDV-34" depart="42.50" from="right-approaching" to="left-exit" type="L0-HDV"/>
    <trip id="L0-HDV-35" depart="43.75" from="bottom-approaching" to="bottom-exit" type="L0-HDV"/>
    <trip id="L0-HDV-36" depart="45.00" from="right-approaching" to="right-exit" type="L0-HDV"/>
    <trip id="L0-HDV-37" depart="46.25" from="left-long-approaching" to="bottom-exit" type="L0-HDV"/>
    <trip id="L0-HDV-38" depart="47.50" from="top-approaching" to="top-exit" type="L0-HDV"/>
    <trip id="L0-HDV-39" depart="48.75" from="top-approaching" to="top-exit" type="L0-HDV"/>
    <trip id="L0-HDV-40" depart="50.00" from="top-approaching" to="top-exit" type="L0-HDV"/>
    <trip id="L0-HDV-41" depart="51.25" from="right-approaching" to="left-exit" type="L0-HDV"/>
    <trip id="L0-HDV-42" depart="52.50" from="right-approaching" to="left-exit" type="L0-HDV"/>
    <trip id="L0-HDV-43" depart="53.75" from="top-approaching" to="top-exit" type="L0-HDV"/>
    <trip id="L0-HDV-44" depart="55.00" from="top-approaching" to="right-exit" type="L0-HDV"/>
    <trip id="L0-HDV-45" depart="56.25" from="top-approaching" to="right-exit" type="L0-HDV"/>
    <trip id="L0-HDV-46" depart="57.50" from="left-long-approaching" to="right-exit" type="L0-HDV"/>
    <trip id="L0-HDV-47" depart="58.75" from="top-approaching" to="top-exit" type="L0-HDV"/>
    <trip id="L0-HDV-48" depart="60.00" from="top-approaching" to="bottom-exit" type="L0-HDV"/>
    <trip id="L0-HDV-49" depart="61.25" from="right-approaching" to="left-exit" type="L0-HDV"/>
    <trip id="L0-HDV-50" depart="62.50" from="right-approaching" to="top-exit" type="L0-HDV"/>
    <trip id="L0-HDV-51" depart="63.75" from="bottom-approaching" to="right-exit" type="L0-HDV"/>
    <trip id="L0-HDV-52" depart="65.00" from="bottom-approaching" to="bottom-exit" type="L0-HDV"/>
    <trip id="L0-HDV-53" depart="66.25" from="top-approaching" to="left-exit" type="L0-HDV"/>
    <trip id="L0-HDV-54" depart="67.50" from="top-approaching" to="bottom-exit" type="L0-HDV"/>
    <trip id="L0-HDV-55" depart="68.75" from="bottom-approaching" to="right-exit" type="L0-HDV"/>
    <trip id="L0-HDV-56" depart="70.00" from="bottom-approaching" to="right-exit" type="L0-HDV"/>
    <trip id="L0-HDV-57" depart="71.25" from="top-approaching" to="right-exit" type="L0-HDV"/>
    <trip id="L0-HDV-58" depart="72.50" from="right-approaching" to="bottom-exit" type="L0-HDV"/>
    <trip id="L0-HDV-59" depart="73.75" from="right-approaching" to="right-exit" type="L0-HDV"/>
    <trip id="L0-HDV-60" depart="75.00" from="right-approaching" to="left-exit" type="L0-HDV"/>
    <trip id="L0-HDV-61" depart="76.25" from="left-long-approaching" to="top-exit" type="L0-HDV"/>
    <trip id="L0-HDV-62" depart="77.50" from="bottom-approaching" to="bottom-exit" type="L0-HDV"/>
    <trip id="L0-HDV-63" depart="78.75" from="top-approaching" to="bottom-exit" type="L0-HDV"/>
    <trip id="L0-HDV-64" depart="80.00" from="bottom-approaching" to="bottom-exit" type="L0-HDV"/>
    <trip id="L0-HDV-65" depart="81.25" from="top-approaching" to="top-exit" type="L0-HDV"/>
    <trip id="L0-HDV-66" depart="82.50" from="bottom-approaching" to="left-exit" type="L0-HDV"/>
    <trip id="L0-HDV-67" depart="83.75" from="bottom-approaching" to="left-exit" type="L0-HDV"/>
    <trip id="L0-HDV-68" depart="85.00" from="bottom-approaching" to="right-exit" type="L0-HDV"/>
    <trip id="L0-HDV-69" depart="86.25" from="left-long-approaching" to="bottom-exit" type="L0-HDV"/>
    <trip id="L0-HDV-70" depart="87.50" from="preparation" to="bottom-exit" type="L0-HDV"/>
    <trip id="L0-HDV-71" depart="88.75" from="bottom-approaching" to="top-exit" type="L0-HDV"/>
    <trip id="L0-HDV-72" depart="90.00" from="bottom-approaching" to="left-exit" type="L0-HDV"/>
    <trip id="L0-HDV-73" depart="91.25" from="right-approaching" to="top-exit" type="L0-HDV"/>
    <trip id="L0-HDV-74" depart="92.50" from="top-approaching" to="bottom-exit" type="L0-HDV"/>
    <trip id="L0-HDV-75" depart="93.75" from="right-approaching" to="top-exit" type="L0-HDV"/>
    <trip id="L0-HDV-76" depart="95.00" from="bottom-approaching" to="right-exit" type="L0-HDV"/>
    <trip id="L0-HDV-77" depart="96.25" from="top-approaching" to="left-exit" type="L0-HDV"/>
    <trip id="L0-HDV-78" depart="97.50" from="left-long-approaching" to="right-exit" type="L0-HDV"/>
    <trip id="L0-HDV-79" depart="98.75" from="left-long-approaching" to="bottom-exit" type="L0-HDV"/>
    <trip id="L0-HDV-80" depart="100.00" from="left-long-approaching" to="left-exit" type="L0-HDV"/>
    <trip id="L0-HDV-81" depart="101.25" from="right-approaching" to="right-exit" type="L0-HDV"/>
    <trip id="L0-HDV-82" depart="102.50" from="left-long-approaching" to="left-exit" type="L0-HDV"/>
    <trip id="L0-HDV-83" depart="103.75" from="top-approaching" to="left-exit" type="L0-HDV"/>
    <trip id="L0-HDV-84" depart="105.00" from="right-approaching" to="bottom-exit" type="L0-HDV"/>
    <trip id="L0-HDV-85" depart="106.25" from="right-approaching" to="left-exit" type="L0-HDV"/>
    <trip id="L0-HDV-86" depart="107.50" from="bottom-approaching" to="left-exit" type="L0-HDV"/>
    <trip id="L0-HDV-87" depart="108.75" from="bottom-approaching" to="top-exit" type="L0-HDV"/>
    <trip id="L0-HDV-88" depart="110.00" from="left-long-approaching" to="left-exit" type="L0-HDV"/>
    <trip id="L0-HDV-89" depart="111.25" from="left-long-approaching" to="top-exit" type="L0-HDV"/>
    <trip id="L0-HDV-90" depart="112.50" from="right-approaching" to="right-exit" type="L0-HDV"/>
    <trip id="L0-HDV-91" depart="113.75" from="right-approaching" to="left-exit" type="L0-HDV"/>
    <trip id="L0-HDV-92" depart="115.00" from="left-long-approaching" to="right-exit" type="L0-HDV"/>
    <trip id="L0-HDV-93" depart="116.25" from="bottom-approaching" to="bottom-exit" type="L0-HDV"/>
    <trip id="L0-HDV-94" depart="117.50" from="left-long-approaching" to="bottom-exit" type="L0-HDV"/>
    <trip id="L0-HDV-95" depart="118.75" from="right-approaching" to="left-exit" type="L0-HDV"/>
    <trip id="L0-HDV-96" depart="120.00" from="top-approaching" to="right-exit" type="L0-HDV"/>
    <trip id="L0-HDV-97" depart="121.25" from="left-long-approaching" to="left-exit" type="L0-HDV"/>
    <trip id="L0-HDV-98" depart="122.50" from="right-approaching" to="left-exit" type="L0-HDV"/>
    <trip id="L0-HDV-99" depart="123.75" from="right-approaching" to="bottom-exit" type="L0-HDV"/>
    <trip id="L0-HDV-100" depart="125.00" from="left-long-approaching" to="left-exit" type="L0-HDV"/>
    <trip id="L0-HDV-101" depart="126.25" from="bottom-approaching" to="right-exit" type="L0-HDV"/>
    <trip id="L0-HDV-102" depart="127.50" from="left-long-approaching" to="right-exit" type="L0-HDV"/>
    <trip id="L0-HDV-103" depart="128.75" from="top-approaching" to="top-exit" type="L0-HDV"/>
    <trip id="L0-HDV-104" depart="130.00" from="left-long-approaching" to="left-exit" type="L0-HDV"/>
    <trip id="L0-HDV-105" depart="131.25" from="left-long-approaching" to="top-exit" type="L0-HDV"/>
    <trip id="L0-HDV-106" depart="132.50" from="top-approaching" to="top-exit" type="L0-HDV"/>
    <trip id="L0-HDV-107" depart="133.75" from="bottom-approaching" to="top-exit" type="L0-HDV"/>
    <trip id="L0-HDV-108" depart="135.00" from="right-approaching" to="bottom-exit" type="L0-HDV"/>
    <trip id="L0-HDV-109" depart="136.25" from="right-approaching" to="top-exit" type="L0-HDV"/>
    <trip id="L0-HDV-110" depart="137.50" from="left-long-approaching" to="right-exit" type="L0-HDV"/>
    <trip id="L0-HDV-111" depart="138.75" from="left-long-approaching" to="bottom-exit" type="L0-HDV"/>
    <trip id="L0-HDV-112" depart="140.00" from="right-approaching" to="bottom-exit" type="L0-HDV"/>
    <trip id="L0-HDV-113" depart="141.25" from="top-approaching" to="right-exit" type="L0-HDV"/>
    <trip id="L0-HDV-114" depart="142.50" from="bottom-approaching" to="bottom-exit" type="L0-HDV"/>
    <trip id="L0-HDV-115" depart="143.75" from="right-approaching" to="top-exit" type="L0-HDV"/>
    <trip id="L0-HDV-116" depart="145.00" from="left-long-approaching" to="top-exit" type="L0-HDV"/>
    <trip id="L0-HDV-117" depart="146.25" from="bottom-approaching" to="top-exit" type="L0-HDV"/>
    <trip id="L0-HDV-118" depart="147.50" from="left-long-approaching" to="bottom-exit" type="L0-HDV"/>
    <trip id="L0-HDV-119" depart="148.75" from="left-long-approaching" to="left-exit" type="L0-HDV"/>
    <trip id="L0-HDV-120" depart="150.00" from="top-approaching" to="top-exit" type="L0-HDV"/>
    <trip id="L0-HDV-121" depart="151.25" from="bottom-approaching" to="right-exit" type="L0-HDV"/>
    <trip id="L0-HDV-122" depart="152.50" from="right-approaching" to="left-exit" type="L0-HDV"/>
    <trip id="L0-HDV-123" depart="153.75" from="top-approaching" to="left-exit" type="L0-HDV"/>
    <trip id="L0-HDV-124" depart="155.00" from="bottom-approaching" to="bottom-exit" type="L0-HDV"/>
    <trip id="L0-HDV-125" depart="156.25" from="right-approaching" to="right-exit" type="L0-HDV"/>
    <trip id="L0-HDV-126" depart="157.50" from="top-approaching" to="top-exit" type="L0-HDV"/>
    <trip id="L0-HDV-127" depart="158.75" from="top-approaching" to="bottom-exit" type="L0-HDV"/>
    <trip id="L0-HDV-128" depart="160.00" from="right-approaching" to="right-exit" type="L0-HDV"/>
    <trip id="L0-HDV-129" depart="161.25" from="right-approaching" to="right-exit" type="L0-HDV"/>
    <trip id="L0-HDV-130" depart="162.50" from="top-approaching" to="right-exit" type="L0-HDV"/>
    <trip id="L0-HDV-131" depart="163.75" from="left-long-approaching" to="right-exit" type="L0-HDV"/>
    <trip id="L0-HDV-132" depart="165.00" from="bottom-approaching" to="right-exit" type="L0-HDV"/>
    <trip id="L0-HDV-133" depart="166.25" from="bottom-approaching" to="bottom-exit" type="L0-HDV"/>
    <trip id="L0-HDV-134" depart="167.50" from="left-long-approaching" to="top-exit" type="L0-HDV"/>
    <trip id="L0-HDV-135" depart="168.75" from="right-approaching" to="left-exit" type="L0-HDV"/>
    <trip id="L0-HDV-136" depart="170.00" from="right-approaching" to="bottom-exit" type="L0-HDV"/>
    <trip id="L0-HDV-137" depart="171.25" from="bottom-approaching" to="top-exit" type="L0-HDV"/>
    <trip id="L0-HDV-138" depart="172.50" from="left-long-approaching" to="left-exit" type="L0-HDV"/>
    <trip id="L0-HDV-139" depart="173.75" from="right-approaching" to="left-exit" type="L0-HDV"/>
    <trip id="L0-HDV-140" depart="175.00" from="left-long-approaching" to="bottom-exit" type="L0-HDV"/>
    <trip id="L0-HDV-141" depart="176.25" from="bottom-approaching" to="bottom-exit" type="L0-HDV"/>
    <trip id="L0-HDV-142" depart="177.50" from="right-approaching" to="bottom-exit" type="L0-HDV"/>
    <trip id="L0-HDV-143" depart="178.75" from="left-long-approaching" to="left-exit" type="L0-HDV"/>
    <trip id="L0-HDV-144" depart="180.00" from="left-long-approaching" to="bottom-exit" type="L0-HDV"/>
    <trip id="L0-HDV-145" depart="181.25" from="top-approaching" to="left-exit" type="L0-HDV"/>
    <trip id="L0-HDV-146" depart="182.50" from="top-approaching" to="top-exit" type="L0-HDV"/>
    <trip id="L0-HDV-147" depart="183.75" from="left-long-approaching" to="left-exit" type="L0-HDV"/>
    <trip id="L0-HDV-148" depart="185.00" from="right-approaching" to="left-exit" type="L0-HDV"/>
    <trip id="L0-HDV-149" depart="186.25" from="left-long-approaching" to="right-exit" type="L0-HDV"/>
    <trip id="L0-HDV-150" depart="187.50" from="top-approaching" to="top-exit" type="L0-HDV"/>
    <trip id="L0-HDV-151" depart="188.75" from="right-approaching" to="left-exit" type="L0-HDV"/>
    <trip id="L0-HDV-152" depart="190.00" from="top-approaching" to="right-exit" type="L0-HDV"/>
    <trip id="L0-HDV-153" depart="191.25" from="bottom-approaching" to="bottom-exit" type="L0-HDV"/>
    <trip id="L0-HDV-154" depart="192.50" from="right-approaching" to="bottom-exit" type="L0-HDV"/>
    <trip id="L0-HDV-155" depart="193.75" from="bottom-approaching" to="left-exit" type="L0-HDV"/>
    <trip id="L0-HDV-156" depart="195.00" from="right-approaching" to="left-exit" type="L0-HDV"/>
    <trip id="L0-HDV-157" depart="196.25" from="left-long-approaching" to="right-exit" type="L0-HDV"/>
    <trip id="L0-HDV-158" depart="197.50" from="right-approaching" to="left-exit" type="L0-HDV"/>
    <trip id="L0-HDV-159" depart="198.75" from="left-long-approaching" to="top-exit" type="L0-HDV"/>
    <trip id="L0-HDV-160" depart="200.00" from="left-long-approaching" to="top-exit" type="L0-HDV"/>
    <trip id="L0-HDV-161" depart="201.25" from="left-long-approaching" to="left-exit" type="L0-HDV"/>
    <trip id="L0-HDV-162" depart="202.50" from="bottom-approaching" to="top-exit" type="L0-HDV"/>
    <trip id="L0-HDV-163" depart="203.75" from="right-approaching" to="top-exit" type="L0-HDV"/>
    <trip id="L0-HDV-164" depart="205.00" from="left-long-approaching" to="right-exit" type="L0-HDV"/>
    <trip id="L0-HDV-165" depart="206.25" from="bottom-approaching" to="left-exit" type="L0-HDV"/>
    <trip id="L0-HDV-166" depart="207.50" from="bottom-approaching" to="bottom-exit" type="L0-HDV"/>
    <trip id="L0-HDV-167" depart="208.75" from="top-approaching" to="bottom-exit" type="L0-HDV"/>
    <trip id="L0-HDV-168" depart="210.00" from="bottom-approaching" to="bottom-exit" type="L0-HDV"/>
    <trip id="L0-HDV-169" depart="211.25" from="left-long-approaching" to="right-exit" type="L0-HDV"/>
    <trip id="L0-HDV-170" depart="212.50" from="bottom-approaching" to="top-exit" type="L0-HDV"/>
    <trip id="L0-HDV-171" depart="213.75" from="top-approaching" to="bottom-exit" type="L0-HDV"/>
    <trip id="L0-HDV-172" depart="215.00" from="left-long-approaching" to="right-exit" type="L0-HDV"/>
    <trip id="L0-HDV-173" depart="216.25" from="top-approaching" to="left-exit" type="L0-HDV"/>
    <trip id="L0-HDV-174" depart="217.50" from="top-approaching" to="left-exit" type="L0-HDV"/>
    <trip id="L0-HDV-175" depart="218.75" from="preparation" to="preparation" type="L0-HDV"/>
    <trip id="L0-HDV-176" depart="220.00" from="right-approaching" to="bottom-exit" type="L0-HDV"/>
    <trip id="L0-HDV-177" depart="221.25" from="right-approaching" to="bottom-exit" type="L0-HDV"/>
    <trip id="L0-HDV-178" depart="222.50" from="left-long-approaching" to="top-exit" type="L0-HDV"/>
    <trip id="L0-HDV-179" depart="223.75" from="top-approaching" to="top-exit" type="L0-HDV"/>
    <trip id="L0-HDV-180" depart="225.00" from="bottom-approaching" to="bottom-exit" type="L0-HDV"/>
    <trip id="L0-HDV-181" depart="226.25" from="left-long-approaching" to="top-exit" type="L0-HDV"/>
    <trip id="L0-HDV-182" depart="227.50" from="top-approaching" to="right-exit" type="L0-HDV"/>
    <trip id="L0-HDV-183" depart="228.75" from="right-approaching" to="top-exit" type="L0-HDV"/>
    <trip id="L0-HDV-184" depart="230.00" from="bottom-approaching" to="bottom-exit" type="L0-HDV"/>
    <trip id="L0-HDV-185" depart="231.25" from="top-approaching" to="bottom-exit" type="L0-HDV"/>
    <trip id="L0-HDV-186" depart="232.50" from="bottom-approaching" to="bottom-exit" type="L0-HDV"/>
    <trip id="L0-HDV-187" depart="233.75" from="bottom-approaching" to="top-exit" type="L0-HDV"/>
    <trip id="L0-HDV-188" depart="235.00" from="left-long-approaching" to="bottom-exit" type="L0-HDV"/>
    <trip id="L0-HDV-189" depart="236.25" from="bottom-approaching" to="right-exit" type="L0-HDV"/>
    <trip id="L0-HDV-190" depart="237.50" from="top-approaching" to="right-exit" type="L0-HDV"/>
    <trip id="L0-HDV-191" depart="238.75" from="top-approaching" to="preparation" type="L0-HDV"/>
    <trip id="L0-HDV-192" depart="240.00" from="right-approaching" to="right-exit" type="L0-HDV"/>
    <trip id="L0-HDV-193" depart="241.25" from="top-approaching" to="top-exit" type="L0-HDV"/>
    <trip id="L0-HDV-194" depart="242.50" from="top-approaching" to="right-exit" type="L0-HDV"/>
    <trip id="L0-HDV-195" depart="243.75" from="top-approaching" to="bottom-exit" type="L0-HDV"/>
    <trip id="L0-HDV-196" depart="245.00" from="right-approaching" to="right-exit" type="L0-HDV"/>
    <trip id="L0-HDV-197" depart="246.25" from="top-approaching" to="left-exit" type="L0-HDV"/>
    <trip id="L0-HDV-198" depart="247.50" from="top-approaching" to="left-exit" type="L0-HDV"/>
    <trip id="L0-HDV-199" depart="248.75" from="right-approaching" to="top-exit" type="L0-HDV"/>
    <trip id="L0-HDV-200" depart="250.00" from="top-approaching" to="right-exit" type="L0-HDV"/>
    <trip id="L0-HDV-201" depart="251.25" from="bottom-approaching" to="bottom-exit" type="L0-HDV"/>
    <trip id="L0-HDV-202" depart="252.50" from="right-approaching" to="left-exit" type="L0-HDV"/>
    <trip id="L0-HDV-203" depart="253.75" from="bottom-approaching" to="top-exit" type="L0-HDV"/>
    <trip id="L0-HDV-204" depart="255.00" from="top-approaching" to="left-exit" type="L0-HDV"/>
    <trip id="L0-HDV-205" depart="256.25" from="left-long-approaching" to="top-exit" type="L0-HDV"/>
    <trip id="L0-HDV-206" depart="257.50" from="bottom-approaching" to="right-exit" type="L0-HDV"/>
    <trip id="L0-HDV-207" depart="258.75" from="bottom-approaching" to="left-exit" type="L0-HDV"/>
    <trip id="L0-HDV-208" depart="260.00" from="top-approaching" to="bottom-exit" type="L0-HDV"/>
    <trip id="L0-HDV-209" depart="261.25" from="bottom-approaching" to="left-exit" type="L0-HDV"/>
    <trip id="L0-HDV-210" depart="262.50" from="left-long-approaching" to="top-exit" type="L0-HDV"/>
    <trip id="L0-HDV-211" depart="263.75" from="right-approaching" to="right-exit" type="L0-HDV"/>
    <trip id="L0-HDV-212" depart="265.00" from="bottom-approaching" to="top-exit" type="L0-HDV"/>
    <trip id="L0-HDV-213" depart="266.25" from="left-long-approaching" to="right-exit" type="L0-HDV"/>
    <trip id="L0-HDV-214" depart="267.50" from="left-long-approaching" to="bottom-exit" type="L0-HDV"/>
    <trip id="L0-HDV-215" depart="268.75" from="left-long-approaching" to="bottom-exit" type="L0-HDV"/>
    <trip id="L0-HDV-216" depart="270.00" from="bottom-approaching" to="right-exit" type="L0-HDV"/>
    <trip id="L0-HDV-217" depart="271.25" from="right-approaching" to="bottom-exit" type="L0-HDV"/>
    <trip id="L0-HDV-218" depart="272.50" from="right-approaching" to="left-exit" type="L0-HDV"/>
    <trip id="L0-HDV-219" depart="273.75" from="left-long-approaching" to="top-exit" type="L0-HDV"/>
    <trip id="L0-HDV-220" depart="275.00" from="left-long-approaching" to="top-exit" type="L0-HDV"/>
    <trip id="L0-HDV-221" depart="276.25" from="right-approaching" to="left-exit" type="L0-HDV"/>
    <trip id="L0-HDV-222" depart="277.50" from="right-approaching" to="left-exit" type="L0-HDV"/>
    <trip id="L0-HDV-223" depart="278.75" from="bottom-approaching" to="right-exit" type="L0-HDV"/>
    <trip id="L0-HDV-224" depart="280.00" from="right-approaching" to="top-exit" type="L0-HDV"/>
    <trip id="L0-HDV-225" depart="281.25" from="bottom-approaching" to="top-exit" type="L0-HDV"/>
    <trip id="L0-HDV-226" depart="282.50" from="top-approaching" to="top-exit" type="L0-HDV"/>
    <trip id="L0-HDV-227" depart="283.75" from="top-approaching" to="right-exit" type="L0-HDV"/>
    <trip id="L0-HDV-228" depart="285.00" from="top-approaching" to="right-exit" type="L0-HDV"/>
    <trip id="L0-HDV-229" depart="286.25" from="top-approaching" to="bottom-exit" type="L0-HDV"/>
    <trip id="L0-HDV-230" depart="287.50" from="top-approaching" to="left-exit" type="L0-HDV"/>
    <trip id="L0-HDV-231" depart="288.75" from="top-approaching" to="left-exit" type="L0-HDV"/>
    <trip id="L0-HDV-232" depart="290.00" from="top-approaching" to="bottom-exit" type="L0-HDV"/>
    <trip id="L0-HDV-233" depart="291.25" from="bottom-approaching" to="top-exit" type="L0-HDV"/>
    <trip id="L0-HDV-234" depart="292.50" from="left-long-approaching" to="top-exit" type="L0-HDV"/>
    <trip id="L0-HDV-235" depart="293.75" from="top-approaching" to="right-exit" type="L0-HDV"/>
    <trip id="L0-HDV-236" depart="295.00" from="right-approaching" to="bottom-exit" type="L0-HDV"/>
    <trip id="L0-HDV-237" depart="296.25" from="bottom-approaching" to="top-exit" type="L0-HDV"/>
    <trip id="L0-HDV-238" depart="297.50" from="top-approaching" to="top-exit" type="L0-HDV"/>
    <trip id="L0-HDV-239" depart="298.75" from="right-approaching" to="left-exit" type="L0-HDV"/>
    <trip id="L0-HDV-240" depart="300.00" from="left-long-approaching" to="bottom-exit" type="L0-HDV"/>
    <trip id="L0-HDV-241" depart="301.25" from="left-long-approaching" to="right-exit" type="L0-HDV"/>
    <trip id="L0-HDV-242" depart="302.50" from="top-approaching" to="top-exit" type="L0-HDV"/>
    <trip id="L0-HDV-243" depart="303.75" from="left-long-approaching" to="bottom-exit" type="L0-HDV"/>
    <trip id="L0-HDV-244" depart="305.00" from="top-approaching" to="right-exit" type="L0-HDV"/>
    <trip id="L0-HDV-245" depart="306.25" from="bottom-approaching" to="left-exit" type="L0-HDV"/>
    <trip id="L0-HDV-246" depart="307.50" from="right-approaching" to="bottom-exit" type="L0-HDV"/>
    <trip id="L0-HDV-247" depart="308.75" from="top-approaching" to="top-exit" type="L0-HDV"/>
    <trip id="L0-HDV-248" depart="310.00" from="right-approaching" to="bottom-exit" type="L0-HDV"/>
    <trip id="L0-HDV-249" depart="311.25" from="bottom-approaching" to="left-exit" type="L0-HDV"/>
    <trip id="L0-HDV-250" depart="312.50" from="bottom-approaching" to="left-exit" type="L0-HDV"/>
    <trip id="L0-HDV-251" depart="313.75" from="bottom-approaching" to="top-exit" type="L0-HDV"/>
    <trip id="L0-HDV-252" depart="315.00" from="top-approaching" to="bottom-exit" type="L0-HDV"/>
    <trip id="L0-HDV-253" depart="316.25" from="top-approaching" to="bottom-exit" type="L0-HDV"/>
    <trip id="L0-HDV-254" depart="317.50" from="bottom-approaching" to="right-exit" type="L0-HDV"/>
    <trip id="L0-HDV-255" depart="318.75" from="top-approaching" to="bottom-exit" type="L0-HDV"/>
    <trip id="L0-HDV-256" depart="320.00" from="bottom-approaching" to="left-exit" type="L0-HDV"/>
    <trip id="L0-HDV-257" depart="321.25" from="bottom-approaching" to="right-exit" type="L0-HDV"/>
    <trip id="L0-HDV-258" depart="322.50" from="top-approaching" to="bottom-exit" type="L0-HDV"/>
    <trip id="L0-HDV-259" depart="323.75" from="bottom-approaching" to="left-exit" type="L0-HDV"/>
    <trip id="L0-HDV-260" depart="325.00" from="top-approaching" to="bottom-exit" type="L0-HDV"/>
    <trip id="L0-HDV-261" depart="326.25" from="top-approaching" to="left-exit" type="L0-HDV"/>
    <trip id="L0-HDV-262" depart="327.50" from="left-long-approaching" to="left-exit" type="L0-HDV"/>
    <trip id="L0-HDV-263" depart="328.75" from="top-approaching" to="top-exit" type="L0-HDV"/>
    <trip id="L0-HDV-264" depart="330.00" from="right-approaching" to="bottom-exit" type="L0-HDV"/>
    <trip id="L0-HDV-265" depart="331.25" from="top-approaching" to="bottom-exit" type="L0-HDV"/>
    <trip id="L0-HDV-266" depart="332.50" from="right-approaching" to="bottom-exit" type="L0-HDV"/>
    <trip id="L0-HDV-267" depart="333.75" from="top-approaching" to="top-exit" type="L0-HDV"/>
    <trip id="L0-HDV-268" depart="335.00" from="top-approaching" to="left-exit" type="L0-HDV"/>
    <trip id="L0-HDV-269" depart="336.25" from="bottom-approaching" to="top-exit" type="L0-HDV"/>
    <trip id="L0-HDV-270" depart="337.50" from="left-long-approaching" to="left-exit" type="L0-HDV"/>
    <trip id="L0-HDV-271" depart="338.75" from="bottom-approaching" to="bottom-exit" type="L0-HDV"/>
    <trip id="L0-HDV-272" depart="340.00" from="bottom-approaching" to="bottom-exit" type="L0-HDV"/>
    <trip id="L0-HDV-273" depart="341.25" from="bottom-approaching" to="left-exit" type="L0-HDV"/>
    <trip id="L0-HDV-274" depart="342.50" from="right-approaching" to="right-exit" type="L0-HDV"/>
    <trip id="L0-HDV-275" depart="343.75" from="bottom-approaching" to="left-exit" type="L0-HDV"/>
    <trip id="L0-HDV-276" depart="345.00" from="right-approaching" to="bottom-exit" type="L0-HDV"/>
    <trip id="L0-HDV-277" depart="346.25" from="left-long-approaching" to="left-exit" type="L0-HDV"/>
    <trip id="L0-HDV-278" depart="347.50" from="top-approaching" to="bottom-exit" type="L0-HDV"/>
    <trip id="L0-HDV-279" depart="348.75" from="left-long-approaching" to="left-exit" type="L0-HDV"/>
    <trip id="L0-HDV-280" depart="350.00" from="right-approaching" to="left-exit" type="L0-HDV"/>
    <trip id="L0-HDV-281" depart="351.25" from="bottom-approaching" to="left-exit" type="L0-HDV"/>
    <trip id="L0-HDV-282" depart="352.50" from="left-long-approaching" to="top-exit" type="L0-HDV"/>
    <trip id="L0-HDV-283" depart="353.75" from="top-approaching" to="left-exit" type="L0-HDV"/>
    <trip id="L0-HDV-284" depart="355.00" from="right-approaching" to="right-exit" type="L0-HDV"/>
    <trip id="L0-HDV-285" depart="356.25" from="top-approaching" to="left-exit" type="L0-HDV"/>
    <trip id="L0-HDV-286" depart="357.50" from="left-long-approaching" to="top-exit" type="L0-HDV"/>
    <trip id="L0-HDV-287" depart="358.75" from="left-long-approaching" to="closed-lane" type="L0-HDV"/>
    <trip id="L0-HDV-288" depart="360.00" from="left-long-approaching" to="top-exit" type="L0-HDV"/>
    <trip id="L0-HDV-289" depart="361.25" from="bottom-approaching" to="left-exit" type="L0-HDV"/>
    <trip id="L0-HDV-290" depart="362.50" from="right-approaching" to="left-exit" type="L0-HDV"/>
    <trip id="L0-HDV-291" depart="363.75" from="bottom-approaching" to="bottom-exit" type="L0-HDV"/>
    <trip id="L0-HDV-292" depart="365.00" from="right-approaching" to="right-exit" type="L0-HDV"/>
    <trip id="L0-HDV-293" depart="366.25" from="bottom-approaching" to="left-exit" type="L0-HDV"/>
    <trip id="L0-HDV-294" depart="367.50" from="top-approaching" to="right-exit" type="L0-HDV"/>
    <trip id="L0-HDV-295" depart="368.75" from="right-approaching" to="bottom-exit" type="L0-HDV"/>
    <trip id="L0-HDV-296" depart="370.00" from="right-approaching" to="left-exit" type="L0-HDV"/>
    <trip id="L0-HDV-297" depart="371.25" from="right-approaching" to="top-exit" type="L0-HDV"/>
    <trip id="L0-HDV-298" depart="372.50" from="bottom-approaching" to="top-exit" type="L0-HDV"/>