<?xml version="1.0" encoding="UTF-8"?>

<!-- generated on 03/31/21 21:08:47 by Eclipse SUMO sumo Version 1.8.0
<configuration xmlns:xsi="http://www.w3.org/2001/XMLSchema-instance" xsi:noNamespaceSchemaLocation="http://sumo.dlr.de/xsd/sumoConfiguration.xsd">

    <input>
        <net-file value="Collision\RealTMSPenetration1\../CollisionIntersection.net.xml"/>
        <route-files value="Collision\RealTMSPenetration1\../CrashedVehicleRoutes.rou.xml,Collision\RealTMSPenetration1\Route-Files/L4-CV-Route.rou.xml,Collision\RealTMSPenetration1\Route-Files/L4-AV-Route.rou.xml,Collision\RealTMSPenetration1\Route-Files/L2-CV-Route.rou.xml,Collision\RealTMSPenetration1\Route-Files/L2-AV-Route.rou.xml,Collision\RealTMSPenetration1\Route-Files/L0-HDV-Route.rou.xml"/>
        <additional-files value="Collision\RealTMSPenetration1\../Additional-Files/Collision-Detectors.add.xml,Collision\RealTMSPenetration1\../Additional-Files/Collision-TMS-Rerouters.add.xml,Collision\RealTMSPenetration1\PreparingVehicleModels/Vehicle-Models/L4-CV.add.xml,Collision\RealTMSPenetration1\PreparingVehicleModels/Vehicle-Models/L4-CV-Left.add.xml,Collision\RealTMSPenetration1\PreparingVehicleModels/Vehicle-Models/L4-CV-Right.add.xml,Collision\RealTMSPenetration1\PreparingVehicleModels/Vehicle-Models/L4-AV.add.xml,Collision\RealTMSPenetration1\PreparingVehicleModels/Vehicle-Models/L4-AV-Left.add.xml,Collision\RealTMSPenetration1\PreparingVehicleModels/Vehicle-Models/L4-AV-Right.add.xml,Collision\RealTMSPenetration1\PreparingVehicleModels/Vehicle-Models/L2-CV.add.xml,Collision\RealTMSPenetration1\PreparingVehicleModels/Vehicle-Models/L2-CV-Left.add.xml,Collision\RealTMSPenetration1\PreparingVehicleModels/Vehicle-Models/L2-CV-Right.add.xml,Collision\RealTMSPenetration1\PreparingVehicleModels/Vehicle-Models/L2-AV.add.xml,Collision\RealTMSPenetration1\PreparingVehicleModels/Vehicle-Models/L2-AV-Left.add.xml,Collision\RealTMSPenetration1\PreparingVehicleModels/Vehicle-Models/L2-AV-Right.add.xml,Collision\RealTMSPenetration1\PreparingVehicleModels/Vehicle-Models/L0-HDV.add.xml,Collision\RealTMSPenetration1\PreparingVehicleModels/Vehicle-Models/L0-HDV-Left.add.xml,Collision\RealTMSPenetration1\PreparingVehicleModels/Vehicle-Models/L0-HDV-Straight.add.xml,Collision\RealTMSPenetration1\../Additional-Files/Collision-Traffic-lights.add.xml,Collision\RealTMSPenetration1\../Additional-Files/Collision-Traffic-Signs.add.xml"/>
    </input>

    <output>
        <tripinfo-output value="Collision\RealTMSPenetration1\Output-Files\TripInfo.xml"/>
    </output>

    <time>
        <begin value="0"/>
        <step-length value="0.1"/>
    </time>

    <processing>
        <ignore-route-errors value="true"/>
        <waiting-time-memory value="300"/>
        <default.action-step-length value="0.1"/>
    </processing>

    <report>
        <no-warnings value="true"/>
    </report>

    <emissions>
        <device.emissions.probability value="1"/>
    </emissions>

    <traci_server>
        <remote-port value="55782"/>
    </traci_server>

    <gui_only>
        <quit-on-end value="true"/>
        <start value="true"/>
        <tracker-interval value="0.1"/>
    </gui_only>

</configuration>
-->

<tripinfos xmlns:xsi="http://www.w3.org/2001/XMLSchema-instance" xsi:noNamespaceSchemaLocation="http://sumo.dlr.de/xsd/tripinfo_file.xsd">
    <tripinfo id="L2-AV-0" depart="120.00" departLane="left-long-approaching_0" departPos="5.10" departSpeed="0.00" departDelay="0.00" arrival="189.20" arrivalLane="bottom-exit_0" arrivalPos="486.40" arrivalSpeed="16.59" duration="69.20" routeLength="979.53" waitingTime="0.00" waitingCount="0" stopTime="0.00" timeLoss="9.19" rerouteNo="0" devices="tripinfo_L2-AV-0 emissions_L2-AV-0 ssm_L2-AV-0 toc_L2-AV-0 driverstateL2-AV-0" vType="L2-AV-Right-56" speedFactor="1.00" vaporized="">
        <emissions CO_abs="2085.360503" CO2_abs="230172.307536" HC_abs="12.173657" PMx_abs="2.915924" NOx_abs="81.795271" fuel_abs="98.941746" electricity_abs="0"/>
    </tripinfo>
    <tripinfo id="L0-HDV-3" depart="126.50" departLane="left-long-approaching_0" departPos="5.10" departSpeed="0.00" departDelay="0.05" arrival="189.40" arrivalLane="top-exit_0" arrivalPos="486.40" arrivalSpeed="17.64" duration="62.90" routeLength="992.31" waitingTime="0.00" waitingCount="0" stopTime="0.00" timeLoss="5.85" rerouteNo="0" devices="tripinfo_L0-HDV-3 emissions_L0-HDV-3 ssm_L0-HDV-3" vType="L0-HDV-Left-44" speedFactor="1.06" vaporized="">
        <emissions CO_abs="2186.363627" CO2_abs="192077.945862" HC_abs="14.197981" PMx_abs="3.323308" NOx_abs="75.408410" fuel_abs="82.565760" electricity_abs="0"/>
    </tripinfo>
    <tripinfo id="L0-HDV-4" depart="129.10" departLane="left-long-approaching_0" departPos="5.10" departSpeed="0.00" departDelay="0.50" arrival="192.80" arrivalLane="top-exit_1" arrivalPos="486.40" arrivalSpeed="18.17" duration="63.70" routeLength="992.31" waitingTime="0.00" waitingCount="0" stopTime="0.00" timeLoss="8.23" rerouteNo="0" devices="tripinfo_L0-HDV-4 emissions_L0-HDV-4 ssm_L0-HDV-4" vType="L0-HDV-Left-82" speedFactor="1.09" vaporized="">
        <emissions CO_abs="2244.758519" CO2_abs="188912.109116" HC_abs="14.242875" PMx_abs="3.241042" NOx_abs="73.873545" fuel_abs="81.205015" electricity_abs="0"/>
    </tripinfo>
    <tripinfo id="L2-AV-1" depart="128.40" departLane="right-approaching_0" departPos="5.10" departSpeed="0.00" departDelay="0.00" arrival="200.40" arrivalLane="bottom-exit_0" arrivalPos="486.40" arrivalSpeed="17.06" duration="72.00" routeLength="992.21" waitingTime="0.00" waitingCount="0" stopTime="0.00" timeLoss="12.90" rerouteNo="0" devices="tripinfo_L2-AV-1 emissions_L2-AV-1 ssm_L2-AV-1 toc_L2-AV-1 driverstateL2-AV-1" vType="L2-AV-0" speedFactor="1.02" vaporized="">
        <emissions CO_abs="2482.683863" CO2_abs="244450.636366" HC_abs="14.554244" PMx_abs="3.245906" NOx_abs="88.110947" fuel_abs="105.079468" electricity_abs="0"/>
    </tripinfo>
    <tripinfo id="L0-HDV-5" depart="131.90" departLane="left-long-approaching_0" departPos="5.10" departSpeed="0.00" departDelay="1.15" arrival="202.50" arrivalLane="top-exit_0" arrivalPos="486.40" arrivalSpeed="16.53" duration="70.60" routeLength="992.31" waitingTime="0.00" waitingCount="0" stopTime="0.00" timeLoss="9.91" rerouteNo="0" devices="tripinfo_L0-HDV-5 emissions_L0-HDV-5 ssm_L0-HDV-5" vType="L0-HDV-Left-36" speedFactor="1.00" vaporized="">
        <emissions CO_abs="2491.506849" CO2_abs="203647.627164" HC_abs="15.948624" PMx_abs="3.354339" NOx_abs="79.604737" fuel_abs="87.539409" electricity_abs="0"/>
    </tripinfo>
    <tripinfo id="L0-HDV-18" depart="158.70" departLane="left-long-approaching_0" departPos="5.10" departSpeed="0.00" departDelay="0.00" arrival="208.80" arrivalLane="top-exit_1" arrivalPos="486.40" arrivalSpeed="23.91" duration="50.10" routeLength="992.31" waitingTime="0.00" waitingCount="0" stopTime="0.00" timeLoss="7.92" rerouteNo="0" devices="tripinfo_L0-HDV-18 emissions_L0-HDV-18 ssm_L0-HDV-18" vType="L0-HDV-Left-2" speedFactor="1.44" vaporized="">
        <emissions CO_abs="3494.768148" CO2_abs="253803.238829" HC_abs="22.108584" PMx_abs="5.212410" NOx_abs="103.198161" fuel_abs="109.098242" electricity_abs="0"/>
    </tripinfo>
    <tripinfo id="L0-HDV-2" depart="124.30" departLane="bottom-approaching_0" departPos="5.10" departSpeed="0.00" departDelay="0.00" arrival="233.30" arrivalLane="right-exit_0" arrivalPos="486.40" arrivalSpeed="17.22" duration="109.00" routeLength="979.43" waitingTime="36.80" waitingCount="1" stopTime="0.00" timeLoss="51.59" rerouteNo="0" devices="tripinfo_L0-HDV-2 emissions_L0-HDV-2 ssm_L0-HDV-2" vType="L0-HDV-32" speedFactor="1.04" vaporized="">
        <emissions CO_abs="9609.299441" CO2_abs="340847.584028" HC_abs="51.735454" PMx_abs="6.839168" NOx_abs="142.856887" fuel_abs="146.518454" electricity_abs="0"/>
    </tripinfo>
    <tripinfo id="L2-CV-0" depart="120.00" departLane="bottom-approaching_0" departPos="5.10" departSpeed="0.00" departDelay="0.00" arrival="233.60" arrivalLane="top-exit_0" arrivalPos="486.40" arrivalSpeed="20.01" duration="113.60" routeLength="994.90" waitingTime="40.90" waitingCount="1" stopTime="0.00" timeLoss="63.82" rerouteNo="0" devices="tripinfo_L2-CV-0 emissions_L2-CV-0 ssm_L2-CV-0 toc_L2-CV-0 driverstateL2-CV-0" vType="L2-CV-0" speedFactor="1.20" vaporized="">
        <emissions CO_abs="10401.946831" CO2_abs="391147.556414" HC_abs="55.345505" PMx_abs="7.282838" NOx_abs="156.654172" fuel_abs="168.141144" electricity_abs="0"/>
    </tripinfo>
    <tripinfo id="L2-CV-6" depart="170.40" departLane="top-approaching_0" departPos="5.10" departSpeed="0.00" departDelay="0.00" arrival="235.70" arrivalLane="bottom-exit_0" arrivalPos="486.40" arrivalSpeed="16.58" duration="65.30" routeLength="994.90" waitingTime="0.00" waitingCount="0" stopTime="0.00" timeLoss="5.17" rerouteNo="0" devices="tripinfo_L2-CV-6 emissions_L2-CV-6 ssm_L2-CV-6 toc_L2-CV-6 driverstateL2-CV-6" vType="L2-CV-41" speedFactor="0.99" vaporized="">
        <emissions CO_abs="1179.095923" CO2_abs="203916.881172" HC_abs="6.993109" PMx_abs="2.142714" NOx_abs="67.969481" fuel_abs="87.655739" electricity_abs="0"/>
    </tripinfo>
    <tripinfo id="L0-HDV-8" depart="137.20" departLane="bottom-approaching_0" departPos="5.10" departSpeed="0.00" departDelay="0.00" arrival="237.70" arrivalLane="right-exit_0" arrivalPos="486.40" arrivalSpeed="18.19" duration="100.50" routeLength="979.43" waitingTime="21.10" waitingCount="1" stopTime="0.00" timeLoss="45.86" rerouteNo="0" devices="tripinfo_L0-HDV-8 emissions_L0-HDV-8 ssm_L0-HDV-8" vType="L0-HDV-28" speedFactor="1.09" vaporized="">
        <emissions CO_abs="7346.195959" CO2_abs="303638.979164" HC_abs="40.496437" PMx_abs="5.556621" NOx_abs="123.323599" fuel_abs="130.523605" electricity_abs="0"/>
    </tripinfo>
    <tripinfo id="L0-HDV-17" depart="156.60" departLane="bottom-approaching_0" departPos="5.10" departSpeed="0.00" departDelay="0.05" arrival="238.60" arrivalLane="right-exit_1" arrivalPos="486.40" arrivalSpeed="20.68" duration="82.00" routeLength="979.43" waitingTime="0.00" waitingCount="0" stopTime="0.00" timeLoss="33.95" rerouteNo="0" devices="tripinfo_L0-HDV-17 emissions_L0-HDV-17 ssm_L0-HDV-17" vType="L0-HDV-77" speedFactor="1.24" vaporized="">
        <emissions CO_abs="4720.541000" CO2_abs="270810.584217" HC_abs="27.908794" PMx_abs="5.091359" NOx_abs="110.273002" fuel_abs="116.410140" electricity_abs="0"/>
    </tripinfo>
    <tripinfo id="L2-AV-3" depart="145.20" departLane="bottom-approaching_0" departPos="5.10" departSpeed="0.00" departDelay="0.00" arrival="239.00" arrivalLane="right-exit_0" arrivalPos="486.40" arrivalSpeed="18.66" duration="93.80" routeLength="979.43" waitingTime="0.00" waitingCount="0" stopTime="0.00" timeLoss="40.40" rerouteNo="0" devices="tripinfo_L2-AV-3 emissions_L2-AV-3 ssm_L2-AV-3 toc_L2-AV-3 driverstateL2-AV-3" vType="L2-AV-85" speedFactor="1.12" vaporized="">
        <emissions CO_abs="3573.616108" CO2_abs="244152.443727" HC_abs="20.993497" PMx_abs="3.882802" NOx_abs="93.654083" fuel_abs="104.951360" electricity_abs="0"/>
    </tripinfo>
    <tripinfo id="L4-CV-1" depart="149.10" departLane="bottom-approaching_0" departPos="5.10" departSpeed="0.00" departDelay="3.10" arrival="239.30" arrivalLane="top-exit_0" arrivalPos="486.40" arrivalSpeed="16.26" duration="90.20" routeLength="994.90" waitingTime="7.70" waitingCount="27" stopTime="0.00" timeLoss="28.88" rerouteNo="0" devices="tripinfo_L4-CV-1 emissions_L4-CV-1 ssm_L4-CV-1 toc_L4-CV-1 driverstateL4-CV-1" vType="L4-CV-89" speedFactor="0.98" vaporized="">
        <emissions CO_abs="4010.242084" CO2_abs="270857.680582" HC_abs="21.926262" PMx_abs="3.759720" NOx_abs="99.670155" fuel_abs="116.431540" electricity_abs="0"/>
    </tripinfo>
    <tripinfo id="L0-HDV-10" depart="143.00" departLane="top-approaching_0" departPos="5.10" departSpeed="0.00" departDelay="1.50" arrival="244.60" arrivalLane="right-exit_1" arrivalPos="486.40" arrivalSpeed="17.38" duration="101.60" routeLength="992.21" waitingTime="25.80" waitingCount="2" stopTime="0.00" timeLoss="43.63" rerouteNo="0" devices="tripinfo_L0-HDV-10 emissions_L0-HDV-10 ssm_L0-HDV-10" vType="L0-HDV-79" speedFactor="1.04" vaporized="">
        <emissions CO_abs="7598.028214" CO2_abs="292814.609320" HC_abs="41.139316" PMx_abs="5.505048" NOx_abs="119.597686" fuel_abs="125.870787" electricity_abs="0"/>
    </tripinfo>
    <tripinfo id="L2-CV-8" depart="187.20" departLane="bottom-approaching_0" departPos="5.10" departSpeed="0.00" departDelay="0.00" arrival="247.40" arrivalLane="top-exit_1" arrivalPos="486.40" arrivalSpeed="19.63" duration="60.20" routeLength="994.90" waitingTime="0.00" waitingCount="0" stopTime="0.00" timeLoss="9.56" rerouteNo="0" devices="tripinfo_L2-CV-8 emissions_L2-CV-8 ssm_L2-CV-8 toc_L2-CV-8 driverstateL2-CV-8" vType="L0-HDV-87" speedFactor="1.18" vaporized="">
        <emissions CO_abs="2211.618130" CO2_abs="224119.175657" HC_abs="15.050033" PMx_abs="3.727492" NOx_abs="85.540590" fuel_abs="96.338956" electricity_abs="0"/>
    </tripinfo>
    <tripinfo id="L0-HDV-26" depart="175.90" departLane="bottom-approaching_0" departPos="5.10" departSpeed="0.00" departDelay="0.00" arrival="247.80" arrivalLane="right-exit_1" arrivalPos="486.40" arrivalSpeed="19.26" duration="71.90" routeLength="979.43" waitingTime="0.00" waitingCount="0" stopTime="0.00" timeLoss="20.41" rerouteNo="0" devices="tripinfo_L0-HDV-26 emissions_L0-HDV-26 ssm_L0-HDV-26" vType="L0-HDV-32" speedFactor="1.16" vaporized="">
        <emissions CO_abs="3508.360978" CO2_abs="248320.137449" HC_abs="21.815361" PMx_abs="4.499326" NOx_abs="100.290092" fuel_abs="106.741961" electricity_abs="0"/>
    </tripinfo>
    <tripinfo id="L0-HDV-29" depart="182.40" departLane="bottom-approaching_0" departPos="5.10" departSpeed="0.00" departDelay="0.05" arrival="250.50" arrivalLane="top-exit_1" arrivalPos="486.40" arrivalSpeed="16.60" duration="68.10" routeLength="994.90" waitingTime="0.00" waitingCount="0" stopTime="0.00" timeLoss="8.21" rerouteNo="0" devices="tripinfo_L0-HDV-29 emissions_L0-HDV-29 ssm_L0-HDV-29" vType="L0-HDV-85" speedFactor="1.00" vaporized="">
        <emissions CO_abs="1730.336103" CO2_abs="159396.881108" HC_abs="11.083873" PMx_abs="2.360362" NOx_abs="59.778995" fuel_abs="68.518138" electricity_abs="0"/>
    </tripinfo>
    <tripinfo id="L0-HDV-12" depart="149.00" departLane="bottom-approaching_0" departPos="5.10" departSpeed="0.00" departDelay="3.20" arrival="251.20" arrivalLane="top-exit_0" arrivalPos="486.40" arrivalSpeed="11.66" duration="102.20" routeLength="994.90" waitingTime="4.60" waitingCount="1" stopTime="0.00" timeLoss="16.86" rerouteNo="0" devices="tripinfo_L0-HDV-12 emissions_L0-HDV-12 ssm_L0-HDV-12" vType="L0-HDV-15" speedFactor="0.70" vaporized="">
        <emissions CO_abs="2934.418017" CO2_abs="170604.781655" HC_abs="17.214060" PMx_abs="2.197250" NOx_abs="63.991685" fuel_abs="73.337262" electricity_abs="0"/>
    </tripinfo>
    <tripinfo id="L0-HDV-35" depart="195.30" departLane="bottom-approaching_0" departPos="5.10" departSpeed="0.00" departDelay="0.05" arrival="253.80" arrivalLane="top-exit_1" arrivalPos="486.40" arrivalSpeed="18.66" duration="58.50" routeLength="994.90" waitingTime="0.00" waitingCount="0" stopTime="0.00" timeLoss="5.75" rerouteNo="0" devices="tripinfo_L0-HDV-35 emissions_L0-HDV-35 ssm_L0-HDV-35" vType="L0-HDV-27" speedFactor="1.13" vaporized="">
        <emissions CO_abs="3403.515608" CO2_abs="255185.984270" HC_abs="21.478299" PMx_abs="5.065759" NOx_abs="105.137320" fuel_abs="109.692498" electricity_abs="0"/>
    </tripinfo>
    <tripinfo id="L4-AV-2" depart="172.00" departLane="bottom-approaching_0" departPos="5.10" departSpeed="0.00" departDelay="0.00" arrival="254.40" arrivalLane="right-exit_0" arrivalPos="486.40" arrivalSpeed="13.99" duration="82.40" routeLength="979.43" waitingTime="0.00" waitingCount="0" stopTime="0.00" timeLoss="11.19" rerouteNo="0" devices="tripinfo_L4-AV-2 emissions_L4-AV-2 ssm_L4-AV-2 toc_L4-AV-2 driverstateL4-AV-2" vType="L4-AV-74" speedFactor="0.84" vaporized="">
        <emissions CO_abs="2268.251648" CO2_abs="235854.005836" HC_abs="14.205542" PMx_abs="2.682254" NOx_abs="84.125967" fuel_abs="101.384659" electricity_abs="0"/>
    </tripinfo>
    <tripinfo id="L0-HDV-16" depart="154.40" departLane="top-approaching_0" departPos="5.10" departSpeed="0.00" departDelay="0.00" arrival="254.40" arrivalLane="right-exit_1" arrivalPos="486.40" arrivalSpeed="19.19" duration="100.00" routeLength="992.21" waitingTime="28.80" waitingCount="3" stopTime="0.00" timeLoss="47.48" rerouteNo="0" devices="tripinfo_L0-HDV-16 emissions_L0-HDV-16 ssm_L0-HDV-16" vType="L0-HDV-1" speedFactor="1.15" vaporized="">
        <emissions CO_abs="8168.353692" CO2_abs="284909.957900" HC_abs="43.285479" PMx_abs="5.849706" NOx_abs="119.044667" fuel_abs="122.472749" electricity_abs="0"/>
    </tripinfo>
    <tripinfo id="L0-HDV-25" depart="173.80" departLane="top-approaching_0" departPos="5.10" departSpeed="0.00" departDelay="0.05" arrival="261.20" arrivalLane="right-exit_1" arrivalPos="486.40" arrivalSpeed="21.15" duration="87.40" routeLength="992.21" waitingTime="8.00" waitingCount="1" stopTime="0.00" timeLoss="39.72" rerouteNo="0" devices="tripinfo_L0-HDV-25 emissions_L0-HDV-25 ssm_L0-HDV-25" vType="L0-HDV-95" speedFactor="1.27" vaporized="">
        <emissions CO_abs="5736.314940" CO2_abs="280542.199636" HC_abs="32.748329" PMx_abs="5.318164" NOx_abs="114.181746" fuel_abs="120.594046" electricity_abs="0"/>
    </tripinfo>
    <tripinfo id="L0-HDV-19" depart="160.90" departLane="top-approaching_0" departPos="5.10" departSpeed="0.00" departDelay="0.05" arrival="274.10" arrivalLane="right-exit_0" arrivalPos="486.40" arrivalSpeed="11.42" duration="113.20" routeLength="992.21" waitingTime="11.60" waitingCount="2" stopTime="0.00" timeLoss="25.33" rerouteNo="0" devices="tripinfo_L0-HDV-19 emissions_L0-HDV-19 ssm_L0-HDV-19" vType="L0-HDV-39" speedFactor="0.69" vaporized="">
        <emissions CO_abs="4958.961250" CO2_abs="212886.777529" HC_abs="27.455302" PMx_abs="3.332057" NOx_abs="84.089800" fuel_abs="91.513035" electricity_abs="0"/>
    </tripinfo>
    <tripinfo id="L0-HDV-27" depart="178.10" departLane="left-long-approaching_0" departPos="5.10" departSpeed="0.00" departDelay="0.05" arrival="274.70" arrivalLane="bottom-exit_0" arrivalPos="486.40" arrivalSpeed="19.43" duration="96.60" routeLength="979.53" waitingTime="37.10" waitingCount="1" stopTime="0.00" timeLoss="45.26" rerouteNo="0" devices="tripinfo_L0-HDV-27 emissions_L0-HDV-27 ssm_L0-HDV-27" vType="L0-HDV-1" speedFactor="1.17" vaporized="">
        <emissions CO_abs="8596.352625" CO2_abs="293659.267002" HC_abs="45.413602" PMx_abs="6.069418" NOx_abs="122.578321" fuel_abs="126.233896" electricity_abs="0"/>
    </tripinfo>
    <tripinfo id="L2-CV-3" depart="145.20" departLane="right-approaching_0" departPos="5.10" departSpeed="0.00" departDelay="0.00" arrival="280.80" arrivalLane="top-exit_0" arrivalPos="486.40" arrivalSpeed="19.65" duration="135.60" routeLength="979.43" waitingTime="64.20" waitingCount="1" stopTime="0.00" timeLoss="84.91" rerouteNo="0" devices="tripinfo_L2-CV-3 emissions_L2-CV-3 ssm_L2-CV-3 toc_L2-CV-3 driverstateL2-CV-3" vType="L2-CV-21" speedFactor="1.18" vaporized="">
        <emissions CO_abs="14120.806824" CO2_abs="446472.122104" HC_abs="73.370014" PMx_abs="8.662504" NOx_abs="182.098898" fuel_abs="191.924587" electricity_abs="0"/>
    </tripinfo>
    <tripinfo id="L0-HDV-28" depart="183.60" departLane="left-long-approaching_0" departPos="5.10" departSpeed="0.00" departDelay="3.40" arrival="281.60" arrivalLane="bottom-exit_0" arrivalPos="486.40" arrivalSpeed="16.07" duration="98.00" routeLength="979.53" waitingTime="27.30" waitingCount="1" stopTime="0.00" timeLoss="36.04" rerouteNo="0" devices="tripinfo_L0-HDV-28 emissions_L0-HDV-28 ssm_L0-HDV-28" vType="L0-HDV-89" speedFactor="0.96" vaporized="">
        <emissions CO_abs="6698.790872" CO2_abs="247185.562315" HC_abs="35.291557" PMx_abs="4.632772" NOx_abs="100.914832" fuel_abs="106.256576" electricity_abs="0"/>
    </tripinfo>
    <tripinfo id="L2-CV-7" depart="180.20" departLane="left-long-approaching_0" departPos="5.10" departSpeed="0.00" departDelay="1.40" arrival="282.70" arrivalLane="right-exit_0" arrivalPos="486.40" arrivalSpeed="17.00" duration="102.50" routeLength="995.23" waitingTime="28.70" waitingCount="1" stopTime="0.00" timeLoss="43.85" rerouteNo="0" devices="tripinfo_L2-CV-7 emissions_L2-CV-7 ssm_L2-CV-7 toc_L2-CV-7 driverstateL2-CV-7" vType="L2-CV-30@L2-CV-7" speedFactor="1.02" vaporized="">
        <emissions CO_abs="7391.191586" CO2_abs="325019.323496" HC_abs="38.780832" PMx_abs="5.286761" NOx_abs="125.076482" fuel_abs="139.714687" electricity_abs="0"/>
    </tripinfo>
    <tripinfo id="L2-AV-8" depart="188.00" departLane="right-approaching_0" departPos="5.10" departSpeed="0.00" departDelay="0.80" arrival="288.90" arrivalLane="top-exit_0" arrivalPos="486.40" arrivalSpeed="15.25" duration="100.90" routeLength="979.43" waitingTime="0.00" waitingCount="0" stopTime="0.00" timeLoss="35.63" rerouteNo="0" devices="tripinfo_L2-AV-8 emissions_L2-AV-8 ssm_L2-AV-8 toc_L2-AV-8 driverstateL2-AV-8" vType="L2-AV-72" speedFactor="0.91" vaporized="">
        <emissions CO_abs="2744.909659" CO2_abs="234913.956091" HC_abs="15.636629" PMx_abs="2.936073" NOx_abs="84.701528" fuel_abs="100.980516" electricity_abs="0"/>
    </tripinfo>
    <tripinfo id="L0-HDV-44" depart="216.60" departLane="left-long-approaching_0" departPos="5.10" departSpeed="0.00" departDelay="2.00" arrival="289.70" arrivalLane="bottom-exit_0" arrivalPos="486.40" arrivalSpeed="17.26" duration="73.10" routeLength="979.53" waitingTime="1.70" waitingCount="1" stopTime="0.00" timeLoss="15.50" rerouteNo="0" devices="tripinfo_L0-HDV-44 emissions_L0-HDV-44 ssm_L0-HDV-44" vType="L0-HDV-73" speedFactor="1.04" vaporized="">
        <emissions CO_abs="3233.068106" CO2_abs="217515.225855" HC_abs="19.665375" PMx_abs="3.755680" NOx_abs="86.285409" fuel_abs="93.500710" electricity_abs="0"/>
    </tripinfo>
    <tripinfo id="L0-HDV-40" depart="206.00" departLane="right-approaching_0" departPos="5.10" departSpeed="0.00" departDelay="0.00" arrival="292.30" arrivalLane="top-exit_0" arrivalPos="486.40" arrivalSpeed="14.88" duration="86.30" routeLength="979.43" waitingTime="0.00" waitingCount="0" stopTime="0.00" timeLoss="19.43" rerouteNo="0" devices="tripinfo_L0-HDV-40 emissions_L0-HDV-40 ssm_L0-HDV-40" vType="L0-HDV-85" speedFactor="0.89" vaporized="">
        <emissions CO_abs="2997.995265" CO2_abs="195169.028864" HC_abs="17.871147" PMx_abs="2.943891" NOx_abs="75.205623" fuel_abs="83.895668" electricity_abs="0"/>
    </tripinfo>
    <tripinfo id="L0-HDV-43" depart="212.50" departLane="left-long-approaching_0" departPos="5.10" departSpeed="0.00" departDelay="0.05" arrival="293.00" arrivalLane="right-exit_0" arrivalPos="486.40" arrivalSpeed="14.60" duration="80.50" routeLength="995.23" waitingTime="0.10" waitingCount="1" stopTime="0.00" timeLoss="12.38" rerouteNo="0" devices="tripinfo_L0-HDV-43 emissions_L0-HDV-43 ssm_L0-HDV-43" vType="L0-HDV-Straight-0" speedFactor="0.88" vaporized="">
        <emissions CO_abs="2298.150985" CO2_abs="180713.025576" HC_abs="14.358105" PMx_abs="2.520916" NOx_abs="68.086527" fuel_abs="77.681517" electricity_abs="0"/>
    </tripinfo>
    <tripinfo id="L0-HDV-54" depart="236.10" departLane="left-long-approaching_0" departPos="5.10" departSpeed="0.00" departDelay="0.00" arrival="296.30" arrivalLane="bottom-exit_1" arrivalPos="486.40" arrivalSpeed="19.62" duration="60.20" routeLength="979.53" waitingTime="0.00" waitingCount="0" stopTime="0.00" timeLoss="9.71" rerouteNo="0" devices="tripinfo_L0-HDV-54 emissions_L0-HDV-54 ssm_L0-HDV-54" vType="L0-HDV-42" speedFactor="1.18" vaporized="">
        <emissions CO_abs="3551.236239" CO2_abs="260745.546678" HC_abs="22.406925" PMx_abs="5.089550" NOx_abs="106.941634" fuel_abs="112.082509" electricity_abs="0"/>
    </tripinfo>
    <tripinfo id="L0-HDV-24" depart="172.40" departLane="right-approaching_0" departPos="5.10" departSpeed="0.00" departDelay="0.80" arrival="297.20" arrivalLane="bottom-exit_0" arrivalPos="486.40" arrivalSpeed="14.85" duration="124.80" routeLength="992.21" waitingTime="40.90" waitingCount="2" stopTime="0.00" timeLoss="57.22" rerouteNo="0" devices="tripinfo_L0-HDV-24 emissions_L0-HDV-24 ssm_L0-HDV-24" vType="L0-HDV-40" speedFactor="0.90" vaporized="">
        <emissions CO_abs="9919.897617" CO2_abs="318973.429398" HC_abs="52.476363" PMx_abs="6.109081" NOx_abs="132.334840" fuel_abs="137.116691" electricity_abs="0"/>
    </tripinfo>
    <tripinfo id="L0-HDV-30" depart="184.50" departLane="right-approaching_0" departPos="5.10" departSpeed="0.00" departDelay="0.00" arrival="307.10" arrivalLane="bottom-exit_0" arrivalPos="486.40" arrivalSpeed="14.97" duration="122.60" routeLength="992.21" waitingTime="30.60" waitingCount="3" stopTime="0.00" timeLoss="55.26" rerouteNo="0" devices="tripinfo_L0-HDV-30 emissions_L0-HDV-30 ssm_L0-HDV-30" vType="L0-HDV-68" speedFactor="0.90" vaporized="">
        <emissions CO_abs="8449.028839" CO2_abs="272086.995141" HC_abs="43.977132" PMx_abs="4.955325" NOx_abs="110.948142" fuel_abs="116.961961" electricity_abs="0"/>
    </tripinfo>
    <tripinfo id="L2-AV-16" depart="254.40" departLane="right-approaching_0" departPos="5.10" departSpeed="0.00" departDelay="0.00" arrival="319.40" arrivalLane="bottom-exit_0" arrivalPos="486.40" arrivalSpeed="17.24" duration="65.00" routeLength="992.21" waitingTime="0.00" waitingCount="0" stopTime="0.00" timeLoss="6.48" rerouteNo="0" devices="tripinfo_L2-AV-16 emissions_L2-AV-16 ssm_L2-AV-16 toc_L2-AV-16 driverstateL2-AV-16" vType="L2-AV-74" speedFactor="1.03" vaporized="">
        <emissions CO_abs="1715.186982" CO2_abs="177527.358850" HC_abs="10.301555" PMx_abs="2.575598" NOx_abs="65.366232" fuel_abs="76.311463" electricity_abs="0"/>
    </tripinfo>
    <tripinfo id="L0-HDV-64" depart="257.60" departLane="bottom-approaching_0" departPos="5.10" departSpeed="0.00" departDelay="0.00" arrival="335.60" arrivalLane="top-exit_0" arrivalPos="486.40" arrivalSpeed="21.75" duration="78.00" routeLength="994.90" waitingTime="19.40" waitingCount="1" stopTime="0.00" timeLoss="32.32" rerouteNo="0" devices="tripinfo_L0-HDV-64 emissions_L0-HDV-64 ssm_L0-HDV-64" vType="L0-HDV-33" speedFactor="1.31" vaporized="">
        <emissions CO_abs="6801.543838" CO2_abs="307656.958490" HC_abs="38.374586" PMx_abs="6.410504" NOx_abs="128.521245" fuel_abs="132.249218" electricity_abs="0"/>
    </tripinfo>
    <tripinfo id="L0-HDV-48" depart="224.30" departLane="bottom-approaching_0" departPos="5.10" departSpeed="0.00" departDelay="1.10" arrival="349.20" arrivalLane="right-exit_1" arrivalPos="486.40" arrivalSpeed="16.46" duration="124.90" routeLength="979.43" waitingTime="47.50" waitingCount="1" stopTime="0.00" timeLoss="64.63" rerouteNo="0" devices="tripinfo_L0-HDV-48 emissions_L0-HDV-48 ssm_L0-HDV-48" vType="L0-HDV-3" speedFactor="0.99" vaporized="">
        <emissions CO_abs="12110.211360" CO2_abs="392878.598247" HC_abs="64.342022" PMx_abs="8.186937" NOx_abs="167.524042" fuel_abs="168.885092" electricity_abs="0"/>
    </tripinfo>
    <tripinfo id="L2-CV-10" depart="204.00" departLane="bottom-approaching_0" departPos="5.10" departSpeed="0.00" departDelay="0.00" arrival="349.80" arrivalLane="right-exit_0" arrivalPos="486.40" arrivalSpeed="15.96" duration="145.80" routeLength="979.43" waitingTime="60.60" waitingCount="2" stopTime="0.00" timeLoss="83.36" rerouteNo="0" devices="tripinfo_L2-CV-10 emissions_L2-CV-10 ssm_L2-CV-10 toc_L2-CV-10 driverstateL2-CV-10" vType="L2-CV-10" speedFactor="0.96" vaporized="">
        <emissions CO_abs="13446.778029" CO2_abs="415118.028565" HC_abs="68.743533" PMx_abs="7.349288" NOx_abs="166.540131" fuel_abs="178.447452" electricity_abs="0"/>
    </tripinfo>
    <tripinfo id="L0-HDV-68" depart="266.20" departLane="bottom-approaching_0" departPos="5.10" departSpeed="0.00" departDelay="0.00" arrival="349.80" arrivalLane="top-exit_0" arrivalPos="486.40" arrivalSpeed="15.71" duration="83.60" routeLength="994.90" waitingTime="0.30" waitingCount="1" stopTime="0.00" timeLoss="20.56" rerouteNo="0" devices="tripinfo_L0-HDV-68 emissions_L0-HDV-68 ssm_L0-HDV-68" vType="L0-HDV-23" speedFactor="0.95" vaporized="">
        <emissions CO_abs="3657.083002" CO2_abs="236317.866590" HC_abs="22.060525" PMx_abs="3.905264" NOx_abs="93.408524" fuel_abs="101.583505" electricity_abs="0"/>
    </tripinfo>
    <tripinfo id="L2-AV-14" depart="237.60" departLane="bottom-approaching_0" departPos="5.10" departSpeed="0.00" departDelay="0.00" arrival="351.30" arrivalLane="right-exit_0" arrivalPos="486.40" arrivalSpeed="17.21" duration="113.70" routeLength="979.43" waitingTime="0.10" waitingCount="1" stopTime="0.00" timeLoss="55.86" rerouteNo="0" devices="tripinfo_L2-AV-14 emissions_L2-AV-14 ssm_L2-AV-14 toc_L2-AV-14 driverstateL2-AV-14" vType="L2-AV-94" speedFactor="1.03" vaporized="">
        <emissions CO_abs="3596.797981" CO2_abs="213375.757259" HC_abs="20.719329" PMx_abs="3.364891" NOx_abs="82.848213" fuel_abs="91.722068" electricity_abs="0"/>
    </tripinfo>
    <tripinfo id="L0-HDV-73" depart="278.70" departLane="bottom-approaching_0" departPos="5.10" departSpeed="0.00" departDelay="1.75" arrival="352.80" arrivalLane="right-exit_1" arrivalPos="486.40" arrivalSpeed="18.95" duration="74.10" routeLength="979.43" waitingTime="0.00" waitingCount="0" stopTime="0.00" timeLoss="21.52" rerouteNo="0" devices="tripinfo_L0-HDV-73 emissions_L0-HDV-73 ssm_L0-HDV-73" vType="L0-HDV-52" speedFactor="1.14" vaporized="">
        <emissions CO_abs="3490.144557" CO2_abs="226602.470989" HC_abs="20.531470" PMx_abs="3.807795" NOx_abs="88.685320" fuel_abs="97.407163" electricity_abs="0"/>
    </tripinfo>