<?xml version="1.0" encoding="UTF-8"?>

<!-- generated on 04/08/21 05:00:31 by Eclipse SUMO sumo Version 1.8.0
<configuration xmlns:xsi="http://www.w3.org/2001/XMLSchema-instance" xsi:noNamespaceSchemaLocation="http://sumo.dlr.de/xsd/sumoConfiguration.xsd">

    <input>
        <net-file value="Collision\RealTMSPenetration1\../CollisionIntersection.net.xml"/>
        <route-files value="Collision\RealTMSPenetration1\../CrashedVehicleRoutes.rou.xml,Collision\RealTMSPenetration1\Route-Files/L4-CV-Route.rou.xml,Collision\RealTMSPenetration1\Route-Files/L4-AV-Route.rou.xml,Collision\RealTMSPenetration1\Route-Files/L2-CV-Route.rou.xml,Collision\RealTMSPenetration1\Route-Files/L2-AV-Route.rou.xml,Collision\RealTMSPenetration1\Route-Files/L0-HDV-Route.rou.xml"/>
        <additional-files value="Collision\RealTMSPenetration1\../Additional-Files/Collision-Detectors.add.xml,Collision\RealTMSPenetration1\../Additional-Files/Collision-TMS-Rerouters.add.xml,Collision\RealTMSPenetration1\PreparingVehicleModels/Vehicle-Models/L4-CV.add.xml,Collision\RealTMSPenetration1\PreparingVehicleModels/Vehicle-Models/L4-CV-Left.add.xml,Collision\RealTMSPenetration1\PreparingVehicleModels/Vehicle-Models/L4-CV-Right.add.xml,Collision\RealTMSPenetration1\PreparingVehicleModels/Vehicle-Models/L4-AV.add.xml,Collision\RealTMSPenetration1\PreparingVehicleModels/Vehicle-Models/L4-AV-Left.add.xml,Collision\RealTMSPenetration1\PreparingVehicleModels/Vehicle-Models/L4-AV-Right.add.xml,Collision\RealTMSPenetration1\PreparingVehicleModels/Vehicle-Models/L2-CV.add.xml,Collision\RealTMSPenetration1\PreparingVehicleModels/Vehicle-Models/L2-CV-Left.add.xml,Collision\RealTMSPenetration1\PreparingVehicleModels/Vehicle-Models/L2-CV-Right.add.xml,Collision\RealTMSPenetration1\PreparingVehicleModels/Vehicle-Models/L2-AV.add.xml,Collision\RealTMSPenetration1\PreparingVehicleModels/Vehicle-Models/L2-AV-Left.add.xml,Collision\RealTMSPenetration1\PreparingVehicleModels/Vehicle-Models/L2-AV-Right.add.xml,Collision\RealTMSPenetration1\PreparingVehicleModels/Vehicle-Models/L0-HDV.add.xml,Collision\RealTMSPenetration1\PreparingVehicleModels/Vehicle-Models/L0-HDV-Left.add.xml,Collision\RealTMSPenetration1\PreparingVehicleModels/Vehicle-Models/L0-HDV-Straight.add.xml,Collision\RealTMSPenetration1\../Additional-Files/Collision-Traffic-lights.add.xml,Collision\RealTMSPenetration1\../Additional-Files/Collision-Traffic-Signs.add.xml"/>
    </input>

    <output>
        <tripinfo-output value="Collision\RealTMSPenetration1\Output-Files\TripInfo.xml"/>
    </output>

    <time>
        <begin value="0"/>
        <step-length value="0.1"/>
    </time>

    <processing>
        <ignore-route-errors value="true"/>
        <waiting-time-memory value="300"/>
        <default.action-step-length value="0.1"/>
    </processing>

    <report>
        <no-warnings value="true"/>
    </report>

    <emissions>
        <device.emissions.probability value="1"/>
    </emissions>

    <traci_server>
        <remote-port value="60852"/>
    </traci_server>

    <gui_only>
        <quit-on-end value="true"/>
        <start value="true"/>
        <tracker-interval value="0.1"/>
    </gui_only>

</configuration>
-->

<tripinfos xmlns:xsi="http://www.w3.org/2001/XMLSchema-instance" xsi:noNamespaceSchemaLocation="http://sumo.dlr.de/xsd/tripinfo_file.xsd">
    <tripinfo id="L0-HDV-6" depart="130.60" departLane="right-approaching_0" departPos="5.10" departSpeed="0.00" departDelay="0.04" arrival="191.30" arrivalLane="left-exit_1" arrivalPos="410.00" arrivalSpeed="19.43" duration="60.70" routeLength="995.12" waitingTime="0.40" waitingCount="1" stopTime="0.00" timeLoss="9.35" rerouteNo="0" devices="tripinfo_L0-HDV-6 emissions_L0-HDV-6 ssm_L0-HDV-6" vType="L0-HDV-1@L0-HDV-6" speedFactor="1.17" vaporized="">
        <emissions CO_abs="2527.044295" CO2_abs="195027.066052" HC_abs="15.538615" PMx_abs="3.627614" NOx_abs="77.691399" fuel_abs="83.833324" electricity_abs="0"/>
    </tripinfo>
    <tripinfo id="L4-AV-0" depart="120.00" departLane="left-long-approaching_0" departPos="5.10" departSpeed="0.00" departDelay="0.00" arrival="198.00" arrivalLane="bottom-exit_0" arrivalPos="486.40" arrivalSpeed="13.99" duration="78.00" routeLength="979.53" waitingTime="0.00" waitingCount="0" stopTime="0.00" timeLoss="6.85" rerouteNo="0" devices="tripinfo_L4-AV-0 emissions_L4-AV-0 ssm_L4-AV-0 toc_L4-AV-0 driverstateL4-AV-0" vType="L4-AV-Right-74" speedFactor="0.84" vaporized="">
        <emissions CO_abs="1727.315537" CO2_abs="219967.366662" HC_abs="11.108278" PMx_abs="2.262777" NOx_abs="76.154798" fuel_abs="94.555644" electricity_abs="0"/>
    </tripinfo>
    <tripinfo id="L0-HDV-7" depart="132.70" departLane="right-approaching_0" departPos="5.10" departSpeed="0.00" departDelay="0.38" arrival="199.80" arrivalLane="bottom-exit_1" arrivalPos="486.40" arrivalSpeed="16.08" duration="67.10" routeLength="992.21" waitingTime="0.00" waitingCount="0" stopTime="0.00" timeLoss="4.43" rerouteNo="0" devices="tripinfo_L0-HDV-7 emissions_L0-HDV-7 ssm_L0-HDV-7" vType="L0-HDV-89" speedFactor="0.96" vaporized="">
        <emissions CO_abs="1688.260824" CO2_abs="161569.991720" HC_abs="10.298384" PMx_abs="2.454656" NOx_abs="61.102737" fuel_abs="69.451983" electricity_abs="0"/>
    </tripinfo>
    <tripinfo id="L4-AV-1" depart="143.00" departLane="right-approaching_0" departPos="5.10" departSpeed="0.00" departDelay="3.00" arrival="213.70" arrivalLane="bottom-exit_0" arrivalPos="486.40" arrivalSpeed="15.82" duration="70.70" routeLength="992.21" waitingTime="0.00" waitingCount="0" stopTime="0.00" timeLoss="6.97" rerouteNo="0" devices="tripinfo_L4-AV-1 emissions_L4-AV-1 ssm_L4-AV-1 toc_L4-AV-1 driverstateL4-AV-1" vType="L4-AV-56" speedFactor="0.95" vaporized="">
        <emissions CO_abs="1693.683621" CO2_abs="221119.198435" HC_abs="10.184825" PMx_abs="2.511402" NOx_abs="76.704120" fuel_abs="95.050356" electricity_abs="0"/>
    </tripinfo>
    <tripinfo id="L0-HDV-16" depart="153.60" departLane="left-long-approaching_0" departPos="5.10" departSpeed="0.00" departDelay="5.44" arrival="214.00" arrivalLane="top-exit_1" arrivalPos="486.40" arrivalSpeed="20.42" duration="60.40" routeLength="992.31" waitingTime="0.00" waitingCount="0" stopTime="0.00" timeLoss="10.99" rerouteNo="0" devices="tripinfo_L0-HDV-16 emissions_L0-HDV-16 ssm_L0-HDV-16" vType="L0-HDV-Left-8" speedFactor="1.23" vaporized="">
        <emissions CO_abs="2430.438986" CO2_abs="207848.263292" HC_abs="15.690395" PMx_abs="3.543510" NOx_abs="80.054814" fuel_abs="89.344984" electricity_abs="0"/>
    </tripinfo>
    <tripinfo id="L2-AV-5" depart="155.00" departLane="right-approaching_0" departPos="5.10" departSpeed="0.00" departDelay="0.00" arrival="222.40" arrivalLane="bottom-exit_0" arrivalPos="486.40" arrivalSpeed="16.27" duration="67.40" routeLength="992.21" waitingTime="0.00" waitingCount="0" stopTime="0.00" timeLoss="5.37" rerouteNo="0" devices="tripinfo_L2-AV-5 emissions_L2-AV-5 ssm_L2-AV-5 toc_L2-AV-5 driverstateL2-AV-5" vType="L2-AV-98" speedFactor="0.98" vaporized="">
        <emissions CO_abs="1575.083615" CO2_abs="220410.582789" HC_abs="9.481646" PMx_abs="2.581634" NOx_abs="76.468921" fuel_abs="94.745550" electricity_abs="0"/>
    </tripinfo>
    <tripinfo id="L0-HDV-3" depart="125.30" departLane="top-approaching_0" departPos="5.10" departSpeed="0.00" departDelay="0.02" arrival="237.30" arrivalLane="bottom-exit_0" arrivalPos="486.40" arrivalSpeed="22.56" duration="112.00" routeLength="994.90" waitingTime="43.70" waitingCount="1" stopTime="0.00" timeLoss="68.01" rerouteNo="0" devices="tripinfo_L0-HDV-3 emissions_L0-HDV-3 ssm_L0-HDV-3" vType="L0-HDV-30" speedFactor="1.36" vaporized="">
        <emissions CO_abs="11743.797047" CO2_abs="411105.807257" HC_abs="63.274730" PMx_abs="8.515582" NOx_abs="172.478518" fuel_abs="176.719912" electricity_abs="0"/>
    </tripinfo>
    <tripinfo id="L0-HDV-17" depart="150.00" departLane="bottom-approaching_0" departPos="5.10" departSpeed="0.00" departDelay="0.08" arrival="238.60" arrivalLane="top-exit_1" arrivalPos="486.40" arrivalSpeed="20.72" duration="88.60" routeLength="994.90" waitingTime="24.50" waitingCount="1" stopTime="0.00" timeLoss="40.51" rerouteNo="0" devices="tripinfo_L0-HDV-17 emissions_L0-HDV-17 ssm_L0-HDV-17" vType="L0-HDV-90" speedFactor="1.24" vaporized="">
        <emissions CO_abs="7663.539424" CO2_abs="312589.853250" HC_abs="42.325828" PMx_abs="6.363245" NOx_abs="130.098528" fuel_abs="134.370485" electricity_abs="0"/>
    </tripinfo>
    <tripinfo id="L2-CV-2" depart="134.00" departLane="bottom-approaching_0" departPos="5.10" departSpeed="0.00" departDelay="0.00" arrival="238.90" arrivalLane="right-exit_0" arrivalPos="486.40" arrivalSpeed="20.01" duration="104.90" routeLength="979.43" waitingTime="32.90" waitingCount="1" stopTime="0.00" timeLoss="55.08" rerouteNo="0" devices="tripinfo_L2-CV-2 emissions_L2-CV-2 ssm_L2-CV-2 toc_L2-CV-2 driverstateL2-CV-2" vType="L2-CV-0" speedFactor="1.20" vaporized="">
        <emissions CO_abs="9083.724608" CO2_abs="367929.571821" HC_abs="48.830562" PMx_abs="6.732208" NOx_abs="146.354690" fuel_abs="158.160114" electricity_abs="0"/>
    </tripinfo>
    <tripinfo id="L4-CV-0" depart="120.00" departLane="bottom-approaching_0" departPos="5.10" departSpeed="0.00" departDelay="0.00" arrival="240.20" arrivalLane="top-exit_0" arrivalPos="486.40" arrivalSpeed="16.26" duration="120.20" routeLength="994.90" waitingTime="47.40" waitingCount="1" stopTime="0.00" timeLoss="58.92" rerouteNo="0" devices="tripinfo_L4-CV-0 emissions_L4-CV-0 ssm_L4-CV-0 toc_L4-CV-0 driverstateL4-CV-0" vType="L4-CV-89" speedFactor="0.98" vaporized="">
        <emissions CO_abs="10137.442426" CO2_abs="363856.286854" HC_abs="51.737923" PMx_abs="6.209087" NOx_abs="142.710825" fuel_abs="156.410415" electricity_abs="0"/>
    </tripinfo>
    <tripinfo id="L0-HDV-1" depart="123.00" departLane="bottom-approaching_0" departPos="5.10" departSpeed="0.00" departDelay="1.24" arrival="241.60" arrivalLane="top-exit_0" arrivalPos="486.40" arrivalSpeed="17.30" duration="118.60" routeLength="994.90" waitingTime="44.30" waitingCount="1" stopTime="0.00" timeLoss="61.14" rerouteNo="0" devices="tripinfo_L0-HDV-1 emissions_L0-HDV-1 ssm_L0-HDV-1" vType="L0-HDV-32" speedFactor="1.04" vaporized="">
        <emissions CO_abs="10845.163767" CO2_abs="363038.901861" HC_abs="57.865054" PMx_abs="7.341762" NOx_abs="152.638574" fuel_abs="156.058147" electricity_abs="0"/>
    </tripinfo>
    <tripinfo id="L4-CV-1" depart="140.00" departLane="bottom-approaching_0" departPos="5.10" departSpeed="0.00" departDelay="0.00" arrival="241.70" arrivalLane="right-exit_0" arrivalPos="486.40" arrivalSpeed="18.72" duration="101.70" routeLength="979.43" waitingTime="21.10" waitingCount="25" stopTime="0.00" timeLoss="48.57" rerouteNo="0" devices="tripinfo_L4-CV-1 emissions_L4-CV-1 ssm_L4-CV-1 toc_L4-CV-1 driverstateL4-CV-1" vType="L4-CV-15" speedFactor="1.12" vaporized="">
        <emissions CO_abs="6052.293151" CO2_abs="313154.530941" HC_abs="33.328455" PMx_abs="5.183651" NOx_abs="120.603922" fuel_abs="134.613572" electricity_abs="0"/>
    </tripinfo>
    <tripinfo id="L0-HDV-18" depart="151.70" departLane="top-approaching_0" departPos="5.10" departSpeed="0.00" departDelay="0.02" arrival="243.40" arrivalLane="bottom-exit_1" arrivalPos="486.40" arrivalSpeed="16.57" duration="91.70" routeLength="994.90" waitingTime="18.90" waitingCount="1" stopTime="0.00" timeLoss="31.62" rerouteNo="0" devices="tripinfo_L0-HDV-18 emissions_L0-HDV-18 ssm_L0-HDV-18" vType="L0-HDV-11" speedFactor="0.99" vaporized="">
        <emissions CO_abs="5673.179651" CO2_abs="238415.433033" HC_abs="30.832439" PMx_abs="4.313177" NOx_abs="96.099670" fuel_abs="102.486258" electricity_abs="0"/>
    </tripinfo>
    <tripinfo id="L0-HDV-21" depart="157.00" departLane="top-approaching_0" departPos="5.10" departSpeed="0.00" departDelay="0.04" arrival="244.50" arrivalLane="bottom-exit_0" arrivalPos="486.40" arrivalSpeed="18.31" duration="87.50" routeLength="994.90" waitingTime="8.40" waitingCount="1" stopTime="0.00" timeLoss="33.51" rerouteNo="0" devices="tripinfo_L0-HDV-21 emissions_L0-HDV-21 ssm_L0-HDV-21" vType="L0-HDV-23" speedFactor="1.11" vaporized="">
        <emissions CO_abs="5465.631497" CO2_abs="284825.319028" HC_abs="31.525498" PMx_abs="5.103884" NOx_abs="114.580053" fuel_abs="122.435269" electricity_abs="0"/>
    </tripinfo>
    <tripinfo id="L0-HDV-25" depart="164.00" departLane="bottom-approaching_0" departPos="5.10" departSpeed="0.00" departDelay="0.00" arrival="245.10" arrivalLane="right-exit_0" arrivalPos="486.40" arrivalSpeed="17.27" duration="81.10" routeLength="979.43" waitingTime="6.70" waitingCount="1" stopTime="0.00" timeLoss="23.52" rerouteNo="0" devices="tripinfo_L0-HDV-25 emissions_L0-HDV-25 ssm_L0-HDV-25" vType="L0-HDV-73" speedFactor="1.04" vaporized="">
        <emissions CO_abs="4355.526182" CO2_abs="238487.297371" HC_abs="25.219475" PMx_abs="4.191608" NOx_abs="95.158880" fuel_abs="102.516296" electricity_abs="0"/>
    </tripinfo>
    <tripinfo id="L0-HDV-32" depart="179.50" departLane="bottom-approaching_0" departPos="5.10" departSpeed="0.00" departDelay="3.18" arrival="251.70" arrivalLane="right-exit_1" arrivalPos="486.40" arrivalSpeed="17.57" duration="72.20" routeLength="979.43" waitingTime="0.00" waitingCount="0" stopTime="0.00" timeLoss="15.68" rerouteNo="0" devices="tripinfo_L0-HDV-32 emissions_L0-HDV-32 ssm_L0-HDV-32" vType="L0-HDV-78" speedFactor="1.06" vaporized="">
        <emissions CO_abs="2150.038082" CO2_abs="193730.068866" HC_abs="14.198507" PMx_abs="3.030938" NOx_abs="74.741226" fuel_abs="83.276336" electricity_abs="0"/>
    </tripinfo>
    <tripinfo id="L4-CV-3" depart="180.10" departLane="top-approaching_0" departPos="5.10" departSpeed="0.00" departDelay="0.10" arrival="253.20" arrivalLane="bottom-exit_0" arrivalPos="486.40" arrivalSpeed="14.64" duration="73.10" routeLength="994.90" waitingTime="0.00" waitingCount="0" stopTime="0.00" timeLoss="5.02" rerouteNo="0" devices="tripinfo_L4-CV-3 emissions_L4-CV-3 ssm_L4-CV-3 toc_L4-CV-3 driverstateL4-CV-3" vType="L4-CV-22" speedFactor="0.88" vaporized="">
        <emissions CO_abs="1139.168256" CO2_abs="202335.218594" HC_abs="7.188484" PMx_abs="1.788496" NOx_abs="66.773714" fuel_abs="86.976276" electricity_abs="0"/>
    </tripinfo>
    <tripinfo id="L4-AV-3" depart="182.30" departLane="bottom-approaching_0" departPos="5.10" departSpeed="0.00" departDelay="2.30" arrival="253.60" arrivalLane="right-exit_1" arrivalPos="486.40" arrivalSpeed="19.65" duration="71.30" routeLength="979.43" waitingTime="0.00" waitingCount="0" stopTime="0.00" timeLoss="20.62" rerouteNo="0" devices="tripinfo_L4-AV-3 emissions_L4-AV-3 ssm_L4-AV-3 toc_L4-AV-3 driverstateL4-AV-3" vType="L4-AV-21" speedFactor="1.18" vaporized="">
        <emissions CO_abs="1974.592469" CO2_abs="178764.701845" HC_abs="12.817853" PMx_abs="2.716411" NOx_abs="68.264681" fuel_abs="76.843451" electricity_abs="0"/>
    </tripinfo>
    <tripinfo id="L2-CV-8" depart="176.00" departLane="bottom-approaching_0" departPos="5.10" departSpeed="0.00" departDelay="0.00" arrival="254.50" arrivalLane="right-exit_0" arrivalPos="486.40" arrivalSpeed="14.25" duration="78.50" routeLength="979.43" waitingTime="0.00" waitingCount="0" stopTime="0.00" timeLoss="8.71" rerouteNo="0" devices="tripinfo_L2-CV-8 emissions_L2-CV-8 ssm_L2-CV-8 toc_L2-CV-8 driverstateL2-CV-8" vType="L2-CV-58" speedFactor="0.85" vaporized="">
        <emissions CO_abs="1833.635067" CO2_abs="224695.370247" HC_abs="11.946355" PMx_abs="2.363495" NOx_abs="78.178810" fuel_abs="96.588060" electricity_abs="0"/>
    </tripinfo>
    <tripinfo id="L0-HDV-35" depart="183.20" departLane="top-approaching_0" departPos="5.10" departSpeed="0.00" departDelay="1.60" arrival="255.30" arrivalLane="bottom-exit_0" arrivalPos="486.40" arrivalSpeed="14.57" duration="72.10" routeLength="994.90" waitingTime="0.00" waitingCount="0" stopTime="0.00" timeLoss="3.89" rerouteNo="0" devices="tripinfo_L0-HDV-35 emissions_L0-HDV-35 ssm_L0-HDV-35" vType="L0-HDV-55" speedFactor="0.88" vaporized="">
        <emissions CO_abs="1215.273341" CO2_abs="159245.224650" HC_abs="8.976668" PMx_abs="2.059053" NOx_abs="58.129331" fuel_abs="68.452984" electricity_abs="0"/>
    </tripinfo>
    <tripinfo id="L0-HDV-37" depart="185.20" departLane="bottom-approaching_0" departPos="5.10" departSpeed="0.00" departDelay="0.08" arrival="258.30" arrivalLane="right-exit_0" arrivalPos="486.40" arrivalSpeed="16.48" duration="73.10" routeLength="979.43" waitingTime="0.00" waitingCount="0" stopTime="0.00" timeLoss="12.69" rerouteNo="0" devices="tripinfo_L0-HDV-37 emissions_L0-HDV-37 ssm_L0-HDV-37" vType="L0-HDV-6" speedFactor="0.99" vaporized="">
        <emissions CO_abs="1774.328744" CO2_abs="149472.443025" HC_abs="10.917230" PMx_abs="2.264342" NOx_abs="56.996233" fuel_abs="64.251989" electricity_abs="0"/>
    </tripinfo>
    <tripinfo id="L0-HDV-40" depart="193.00" departLane="top-approaching_0" departPos="5.10" departSpeed="0.00" departDelay="2.60" arrival="261.90" arrivalLane="bottom-exit_0" arrivalPos="486.40" arrivalSpeed="15.19" duration="68.90" routeLength="994.90" waitingTime="0.00" waitingCount="0" stopTime="0.00" timeLoss="3.29" rerouteNo="0" devices="tripinfo_L0-HDV-40 emissions_L0-HDV-40 ssm_L0-HDV-40" vType="L0-HDV-19" speedFactor="0.91" vaporized="">
        <emissions CO_abs="934.403817" CO2_abs="129536.046369" HC_abs="6.015949" PMx_abs="1.477586" NOx_abs="45.202403" fuel_abs="55.682375" electricity_abs="0"/>
    </tripinfo>
    <tripinfo id="L2-AV-2" depart="134.00" departLane="top-approaching_0" departPos="5.10" departSpeed="0.00" departDelay="0.00" arrival="262.10" arrivalLane="right-exit_0" arrivalPos="486.40" arrivalSpeed="16.59" duration="128.10" routeLength="992.21" waitingTime="47.70" waitingCount="2" stopTime="0.00" timeLoss="67.33" rerouteNo="0" devices="tripinfo_L2-AV-2 emissions_L2-AV-2 ssm_L2-AV-2 toc_L2-AV-2 driverstateL2-AV-2" vType="L2-AV-56" speedFactor="1.00" vaporized="">
        <emissions CO_abs="10942.412773" CO2_abs="380322.333032" HC_abs="56.527231" PMx_abs="6.643087" NOx_abs="150.784916" fuel_abs="163.488807" electricity_abs="0"/>
    </tripinfo>
    <tripinfo id="L2-AV-8" depart="176.00" departLane="top-approaching_0" departPos="5.10" departSpeed="0.00" departDelay="0.00" arrival="268.30" arrivalLane="right-exit_0" arrivalPos="486.40" arrivalSpeed="17.04" duration="92.30" routeLength="992.21" waitingTime="0.10" waitingCount="1" stopTime="0.00" timeLoss="33.06" rerouteNo="0" devices="tripinfo_L2-AV-8 emissions_L2-AV-8 ssm_L2-AV-8 toc_L2-AV-8 driverstateL2-AV-8" vType="L2-AV-94" speedFactor="1.02" vaporized="">
        <emissions CO_abs="3333.539810" CO2_abs="252976.613567" HC_abs="19.359442" PMx_abs="3.574817" NOx_abs="94.018666" fuel_abs="108.744775" electricity_abs="0"/>
    </tripinfo>
    <tripinfo id="L2-CV-10" depart="190.00" departLane="top-approaching_0" departPos="5.10" departSpeed="0.00" departDelay="0.00" arrival="270.20" arrivalLane="right-exit_0" arrivalPos="486.40" arrivalSpeed="16.72" duration="80.20" routeLength="992.21" waitingTime="0.00" waitingCount="0" stopTime="0.00" timeLoss="19.90" rerouteNo="0" devices="tripinfo_L2-CV-10 emissions_L2-CV-10 ssm_L2-CV-10 toc_L2-CV-10 driverstateL2-CV-10" vType="L2-CV-64" speedFactor="1.00" vaporized="">
        <emissions CO_abs="2838.933317" CO2_abs="253251.899417" HC_abs="16.640707" PMx_abs="3.404249" NOx_abs="92.178165" fuel_abs="108.862945" electricity_abs="0"/>
    </tripinfo>
    <tripinfo id="L0-HDV-11" depart="139.40" departLane="left-long-approaching_0" departPos="5.10" departSpeed="0.00" departDelay="0.04" arrival="289.10" arrivalLane="right-exit_0" arrivalPos="486.40" arrivalSpeed="18.71" duration="149.70" routeLength="995.23" waitingTime="83.30" waitingCount="1" stopTime="0.00" timeLoss="96.60" rerouteNo="0" devices="tripinfo_L0-HDV-11 emissions_L0-HDV-11 ssm_L0-HDV-11" vType="L0-HDV-Straight-22" speedFactor="1.13" vaporized="">
        <emissions CO_abs="17821.813076" CO2_abs="494909.948436" HC_abs="92.854296" PMx_abs="10.913185" NOx_abs="214.483527" fuel_abs="212.746222" electricity_abs="0"/>
    </tripinfo>
    <tripinfo id="L0-HDV-14" depart="145.10" departLane="left-long-approaching_0" departPos="5.10" departSpeed="0.00" departDelay="0.46" arrival="293.10" arrivalLane="bottom-exit_0" arrivalPos="486.40" arrivalSpeed="18.66" duration="148.00" routeLength="979.53" waitingTime="61.50" waitingCount="1" stopTime="0.00" timeLoss="94.70" rerouteNo="0" devices="tripinfo_L0-HDV-14 emissions_L0-HDV-14 ssm_L0-HDV-14" vType="L0-HDV-38" speedFactor="1.12" vaporized="">
        <emissions CO_abs="15146.449523" CO2_abs="453163.782410" HC_abs="79.434232" PMx_abs="9.081184" NOx_abs="190.579044" fuel_abs="194.801219" electricity_abs="0"/>
    </tripinfo>
    <tripinfo id="L0-HDV-9" depart="135.90" departLane="right-approaching_0" departPos="5.10" departSpeed="0.00" departDelay="0.06" arrival="293.20" arrivalLane="top-exit_0" arrivalPos="486.40" arrivalSpeed="16.61" duration="157.30" routeLength="979.43" waitingTime="81.70" waitingCount="1" stopTime="0.00" timeLoss="97.44" rerouteNo="0" devices="tripinfo_L0-HDV-9 emissions_L0-HDV-9 ssm_L0-HDV-9" vType="L0-HDV-85" speedFactor="1.00" vaporized="">
        <emissions CO_abs="16391.837152" CO2_abs="420590.834071" HC_abs="84.084200" PMx_abs="8.674882" NOx_abs="178.297179" fuel_abs="180.800699" electricity_abs="0"/>
    </tripinfo>
    <tripinfo id="L0-HDV-15" depart="149.20" departLane="left-long-approaching_0" departPos="5.10" departSpeed="0.00" departDelay="2.80" arrival="295.80" arrivalLane="bottom-exit_0" arrivalPos="486.40" arrivalSpeed="18.90" duration="146.60" routeLength="979.53" waitingTime="57.10" waitingCount="2" stopTime="0.00" timeLoss="93.89" rerouteNo="0" devices="tripinfo_L0-HDV-15 emissions_L0-HDV-15 ssm_L0-HDV-15" vType="L0-HDV-27" speedFactor="1.13" vaporized="">
        <emissions CO_abs="15316.187273" CO2_abs="481281.894991" HC_abs="81.179523" PMx_abs="10.442217" NOx_abs="208.351232" fuel_abs="206.886404" electricity_abs="0"/>
    </tripinfo>
    <tripinfo id="L0-HDV-10" depart="139.50" departLane="right-approaching_0" departPos="5.10" departSpeed="0.00" departDelay="1.90" arrival="298.40" arrivalLane="top-exit_0" arrivalPos="486.40" arrivalSpeed="14.97" duration="158.90" routeLength="979.43" waitingTime="76.00" waitingCount="1" stopTime="0.00" timeLoss="92.40" rerouteNo="0" devices="tripinfo_L0-HDV-10 emissions_L0-HDV-10 ssm_L0-HDV-10" vType="L0-HDV-68" speedFactor="0.90" vaporized="">
        <emissions CO_abs="15247.985058" CO2_abs="379205.976852" HC_abs="77.488695" PMx_abs="7.635360" NOx_abs="159.964856" fuel_abs="163.011028" electricity_abs="0"/>
    </tripinfo>
    <tripinfo id="L2-AV-7" depart="169.60" departLane="right-approaching_0" departPos="5.10" departSpeed="0.00" departDelay="0.60" arrival="299.80" arrivalLane="top-exit_1" arrivalPos="486.40" arrivalSpeed="17.38" duration="130.20" routeLength="979.43" waitingTime="3.60" waitingCount="1" stopTime="0.00" timeLoss="72.85" rerouteNo="0" devices="tripinfo_L2-AV-7 emissions_L2-AV-7 ssm_L2-AV-7 toc_L2-AV-7 driverstateL2-AV-7" vType="L2-AV-1" speedFactor="1.04" vaporized="">
        <emissions CO_abs="3822.103995" CO2_abs="247703.330935" HC_abs="21.470644" PMx_abs="3.709171" NOx_abs="93.507427" fuel_abs="106.478137" electricity_abs="0"/>
    </tripinfo>
    <tripinfo id="L0-HDV-46" depart="201.00" departLane="left-long-approaching_0" departPos="5.10" departSpeed="0.00" departDelay="0.04" arrival="301.30" arrivalLane="bottom-exit_0" arrivalPos="486.40" arrivalSpeed="14.78" duration="100.30" routeLength="979.53" waitingTime="20.20" waitingCount="1" stopTime="0.00" timeLoss="32.91" rerouteNo="0" devices="tripinfo_L0-HDV-46 emissions_L0-HDV-46 ssm_L0-HDV-46" vType="L0-HDV-58" speedFactor="0.89" vaporized="">
        <emissions CO_abs="5991.153396" CO2_abs="233612.661190" HC_abs="32.427450" PMx_abs="4.156641" NOx_abs="94.382637" fuel_abs="100.422179" electricity_abs="0"/>
    </tripinfo>
    <tripinfo id="L0-HDV-23" depart="162.50" departLane="right-approaching_0" departPos="5.10" departSpeed="0.00" departDelay="2.02" arrival="302.30" arrivalLane="top-exit_0" arrivalPos="486.40" arrivalSpeed="14.62" duration="139.80" routeLength="979.43" waitingTime="52.20" waitingCount="1" stopTime="0.00" timeLoss="71.75" rerouteNo="0" devices="tripinfo_L0-HDV-23 emissions_L0-HDV-23 ssm_L0-HDV-23" vType="L0-HDV-0" speedFactor="0.88" vaporized="">
        <emissions CO_abs="11840.983550" CO2_abs="334406.238720" HC_abs="61.439820" PMx_abs="6.370495" NOx_abs="138.798368" fuel_abs="143.752013" electricity_abs="0"/>
    </tripinfo>
    <tripinfo id="L0-HDV-31" depart="178.40" departLane="right-approaching_0" departPos="5.10" departSpeed="0.00" departDelay="3.84" arrival="305.50" arrivalLane="top-exit_0" arrivalPos="486.40" arrivalSpeed="14.56" duration="127.10" routeLength="979.43" waitingTime="3.60" waitingCount="3" stopTime="0.00" timeLoss="58.81" rerouteNo="0" devices="tripinfo_L0-HDV-31 emissions_L0-HDV-31 ssm_L0-HDV-31" vType="L0-HDV-75" speedFactor="0.87" vaporized="">
        <emissions CO_abs="6247.447605" CO2_abs="259301.258727" HC_abs="34.439333" PMx_abs="4.715640" NOx_abs="105.991079" fuel_abs="111.464326" electricity_abs="0"/>
    </tripinfo>
    <tripinfo id="L2-AV-15" depart="225.00" departLane="left-long-approaching_0" departPos="5.10" departSpeed="0.00" departDelay="0.00" arrival="306.20" arrivalLane="bottom-exit_0" arrivalPos="486.40" arrivalSpeed="15.36" duration="81.20" routeLength="979.53" waitingTime="0.00" waitingCount="0" stopTime="0.00" timeLoss="16.32" rerouteNo="0" devices="tripinfo_L2-AV-15 emissions_L2-AV-15 ssm_L2-AV-15 toc_L2-AV-15 driverstateL2-AV-15" vType="L2-AV-Right-44" speedFactor="0.92" vaporized="">
        <emissions CO_abs="2742.600021" CO2_abs="246691.698560" HC_abs="15.811402" PMx_abs="3.137301" NOx_abs="89.414888" fuel_abs="106.043105" electricity_abs="0"/>
    </tripinfo>
    <tripinfo id="L0-HDV-65" depart="234.40" departLane="left-long-approaching_0" departPos="5.10" departSpeed="0.00" departDelay="0.00" arrival="307.50" arrivalLane="bottom-exit_0" arrivalPos="486.40" arrivalSpeed="15.81" duration="73.10" routeLength="979.53" waitingTime="0.00" waitingCount="0" stopTime="0.00" timeLoss="10.18" rerouteNo="0" devices="tripinfo_L0-HDV-65 emissions_L0-HDV-65 ssm_L0-HDV-65" vType="L0-HDV-64" speedFactor="0.95" vaporized="">
        <emissions CO_abs="2135.349347" CO2_abs="179607.381469" HC_abs="13.636701" PMx_abs="2.860323" NOx_abs="69.748236" fuel_abs="77.205590" electricity_abs="0"/>
    </tripinfo>
    <tripinfo id="L0-HDV-36" depart="183.40" departLane="right-approaching_0" departPos="5.10" departSpeed="0.00" departDelay="0.04" arrival="308.90" arrivalLane="top-exit_0" arrivalPos="486.40" arrivalSpeed="15.00" duration="125.50" routeLength="979.43" waitingTime="3.70" waitingCount="5" stopTime="0.00" timeLoss="59.49" rerouteNo="0" devices="tripinfo_L0-HDV-36 emissions_L0-HDV-36 ssm_L0-HDV-36" vType="L0-HDV-92" speedFactor="0.90" vaporized="">
        <emissions CO_abs="5791.639681" CO2_abs="248203.162844" HC_abs="32.017911" PMx_abs="4.273376" NOx_abs="99.609531" fuel_abs="106.693879" electricity_abs="0"/>
    </tripinfo>
    <tripinfo id="L0-HDV-22" depart="158.80" departLane="right-approaching_0" departPos="5.10" departSpeed="0.00" departDelay="0.08" arrival="309.30" arrivalLane="bottom-exit_1" arrivalPos="486.40" arrivalSpeed="18.18" duration="150.50" routeLength="992.21" waitingTime="73.60" waitingCount="2" stopTime="0.00" timeLoss="95.08" rerouteNo="0" devices="tripinfo_L0-HDV-22 emissions_L0-HDV-22 ssm_L0-HDV-22" vType="L0-HDV-85" speedFactor="1.09" vaporized="">
        <emissions CO_abs="15782.766373" CO2_abs="426055.313511" HC_abs="81.563245" PMx_abs="8.825071" NOx_abs="180.390163" fuel_abs="183.149037" electricity_abs="0"/>
    </tripinfo>
    <tripinfo id="L2-AV-16" depart="232.00" departLane="right-approaching_0" departPos="5.10" departSpeed="0.00" departDelay="0.00" arrival="311.00" arrivalLane="top-exit_0" arrivalPos="486.40" arrivalSpeed="17.62" duration="79.00" routeLength="979.43" waitingTime="0.00" waitingCount="0" stopTime="0.00" timeLoss="22.45" rerouteNo="0" devices="tripinfo_L2-AV-16 emissions_L2-AV-16 ssm_L2-AV-16 toc_L2-AV-16 driverstateL2-AV-16" vType="L2-AV-30" speedFactor="1.06" vaporized="">
        <emissions CO_abs="3060.280391" CO2_abs="219707.645976" HC_abs="18.373938" PMx_abs="3.387204" NOx_abs="84.767752" fuel_abs="94.443470" electricity_abs="0"/>
    </tripinfo>
    <tripinfo id="L0-HDV-64" depart="235.40" departLane="right-approaching_0" departPos="5.10" departSpeed="0.00" departDelay="2.76" arrival="311.50" arrivalLane="top-exit_1" arrivalPos="486.40" arrivalSpeed="17.82" duration="76.10" routeLength="979.43" waitingTime="0.00" waitingCount="0" stopTime="0.00" timeLoss="20.31" rerouteNo="0" devices="tripinfo_L0-HDV-64 emissions_L0-HDV-64 ssm_L0-HDV-64" vType="L0-HDV-66" speedFactor="1.07" vaporized="">
        <emissions CO_abs="2989.578048" CO2_abs="212035.772891" HC_abs="18.364026" PMx_abs="3.522448" NOx_abs="83.512117" fuel_abs="91.145356" electricity_abs="0"/>
    </tripinfo>
    <tripinfo id="L0-HDV-29" depart="173.20" departLane="right-approaching_0" departPos="5.10" departSpeed="0.00" departDelay="2.16" arrival="311.70" arrivalLane="bottom-exit_0" arrivalPos="486.40" arrivalSpeed="16.99" duration="138.50" routeLength="992.21" waitingTime="62.70" waitingCount="2" stopTime="0.00" timeLoss="79.17" rerouteNo="0" devices="tripinfo_L0-HDV-29 emissions_L0-HDV-29 ssm_L0-HDV-29" vType="L0-HDV-11" speedFactor="1.02" vaporized="">
        <emissions CO_abs="13381.876464" CO2_abs="369802.713623" HC_abs="68.986606" PMx_abs="7.539502" NOx_abs="155.661429" fuel_abs="158.967508" electricity_abs="0"/>
    </tripinfo>