<?xml version="1.0" encoding="UTF-8"?>

<!-- generated on 03/28/21 23:30:45 by Eclipse SUMO sumo Version 1.8.0
<configuration xmlns:xsi="http://www.w3.org/2001/XMLSchema-instance" xsi:noNamespaceSchemaLocation="http://sumo.dlr.de/xsd/sumoConfiguration.xsd">

    <input>
        <net-file value="Collision\RealTMSPenetration1\../CollisionIntersection.net.xml"/>
        <route-files value="Collision\RealTMSPenetration1\../CrashedVehicleRoutes.rou.xml,Collision\RealTMSPenetration1\Route-Files/L4-CV-Route.rou.xml,Collision\RealTMSPenetration1\Route-Files/L4-AV-Route.rou.xml,Collision\RealTMSPenetration1\Route-Files/L2-CV-Route.rou.xml,Collision\RealTMSPenetration1\Route-Files/L2-AV-Route.rou.xml,Collision\RealTMSPenetration1\Route-Files/L0-HDV-Route.rou.xml"/>
        <additional-files value="Collision\RealTMSPenetration1\../Additional-Files/Collision-Detectors.add.xml,Collision\RealTMSPenetration1\../Additional-Files/Collision-TMS-Rerouters.add.xml,Collision\RealTMSPenetration1\PreparingVehicleModels/Vehicle-Models/L4-CV.add.xml,Collision\RealTMSPenetration1\PreparingVehicleModels/Vehicle-Models/L4-CV-Left.add.xml,Collision\RealTMSPenetration1\PreparingVehicleModels/Vehicle-Models/L4-CV-Right.add.xml,Collision\RealTMSPenetration1\PreparingVehicleModels/Vehicle-Models/L4-AV.add.xml,Collision\RealTMSPenetration1\PreparingVehicleModels/Vehicle-Models/L4-AV-Left.add.xml,Collision\RealTMSPenetration1\PreparingVehicleModels/Vehicle-Models/L4-AV-Right.add.xml,Collision\RealTMSPenetration1\PreparingVehicleModels/Vehicle-Models/L2-CV.add.xml,Collision\RealTMSPenetration1\PreparingVehicleModels/Vehicle-Models/L2-CV-Left.add.xml,Collision\RealTMSPenetration1\PreparingVehicleModels/Vehicle-Models/L2-CV-Right.add.xml,Collision\RealTMSPenetration1\PreparingVehicleModels/Vehicle-Models/L2-AV.add.xml,Collision\RealTMSPenetration1\PreparingVehicleModels/Vehicle-Models/L2-AV-Left.add.xml,Collision\RealTMSPenetration1\PreparingVehicleModels/Vehicle-Models/L2-AV-Right.add.xml,Collision\RealTMSPenetration1\PreparingVehicleModels/Vehicle-Models/L0-HDV.add.xml,Collision\RealTMSPenetration1\PreparingVehicleModels/Vehicle-Models/L0-HDV-Left.add.xml,Collision\RealTMSPenetration1\PreparingVehicleModels/Vehicle-Models/L0-HDV-Straight.add.xml,Collision\RealTMSPenetration1\../Additional-Files/Collision-Traffic-lights.add.xml,Collision\RealTMSPenetration1\../Additional-Files/Collision-Traffic-Signs.add.xml"/>
    </input>

    <output>
        <tripinfo-output value="Collision\RealTMSPenetration1\Output-Files\TripInfo.xml"/>
    </output>

    <time>
        <begin value="0"/>
        <step-length value="0.1"/>
    </time>

    <processing>
        <ignore-route-errors value="true"/>
        <waiting-time-memory value="300"/>
        <default.action-step-length value="0.1"/>
    </processing>

    <report>
        <no-warnings value="true"/>
    </report>

    <emissions>
        <device.emissions.probability value="1"/>
    </emissions>

    <traci_server>
        <remote-port value="49601"/>
    </traci_server>

    <gui_only>
        <quit-on-end value="true"/>
        <start value="true"/>
        <tracker-interval value="0.1"/>
    </gui_only>

</configuration>
-->

<tripinfos xmlns:xsi="http://www.w3.org/2001/XMLSchema-instance" xsi:noNamespaceSchemaLocation="http://sumo.dlr.de/xsd/tripinfo_file.xsd">
    <tripinfo id="L2-AV-1" depart="132.00" departLane="right-approaching_0" departPos="5.10" departSpeed="0.00" departDelay="0.00" arrival="205.90" arrivalLane="bottom-exit_0" arrivalPos="486.40" arrivalSpeed="14.62" duration="73.90" routeLength="992.21" waitingTime="0.00" waitingCount="0" stopTime="0.00" timeLoss="4.90" rerouteNo="0" devices="tripinfo_L2-AV-1 emissions_L2-AV-1 ssm_L2-AV-1 toc_L2-AV-1 driverstateL2-AV-1" vType="L2-AV-84" speedFactor="0.88" vaporized="">
        <emissions CO_abs="1491.576444" CO2_abs="216885.595256" HC_abs="9.366347" PMx_abs="2.216013" NOx_abs="74.226361" fuel_abs="93.230708" electricity_abs="0"/>
    </tripinfo>
    <tripinfo id="L0-HDV-3" depart="129.00" departLane="left-long-approaching_0" departPos="5.10" departSpeed="0.00" departDelay="0.00" arrival="214.50" arrivalLane="top-exit_0" arrivalPos="486.40" arrivalSpeed="17.43" duration="85.50" routeLength="1392.31" waitingTime="0.00" waitingCount="0" stopTime="0.00" timeLoss="4.67" rerouteNo="0" devices="tripinfo_L0-HDV-3 emissions_L0-HDV-3 ssm_L0-HDV-3" vType="L0-HDV-Left-19" speedFactor="1.05" vaporized="">
        <emissions CO_abs="1653.737339" CO2_abs="186289.828579" HC_abs="10.127175" PMx_abs="2.690538" NOx_abs="68.099445" fuel_abs="80.078012" electricity_abs="0"/>
    </tripinfo>
    <tripinfo id="L0-HDV-4" depart="132.00" departLane="left-long-approaching_0" departPos="5.10" departSpeed="0.00" departDelay="0.00" arrival="215.60" arrivalLane="top-exit_1" arrivalPos="486.40" arrivalSpeed="18.62" duration="83.60" routeLength="1392.31" waitingTime="0.00" waitingCount="0" stopTime="0.00" timeLoss="8.21" rerouteNo="0" devices="tripinfo_L0-HDV-4 emissions_L0-HDV-4 ssm_L0-HDV-4" vType="L0-HDV-Left-25" speedFactor="1.12" vaporized="">
        <emissions CO_abs="2498.505398" CO2_abs="245089.324615" HC_abs="16.984133" PMx_abs="4.230392" NOx_abs="95.366569" fuel_abs="105.352874" electricity_abs="0"/>
    </tripinfo>
    <tripinfo id="L0-HDV-12" depart="163.20" departLane="bottom-approaching_0" departPos="5.10" departSpeed="0.00" departDelay="7.20" arrival="238.00" arrivalLane="top-exit_0" arrivalPos="486.40" arrivalSpeed="14.81" duration="74.80" routeLength="994.90" waitingTime="0.00" waitingCount="0" stopTime="0.00" timeLoss="7.57" rerouteNo="0" devices="tripinfo_L0-HDV-12 emissions_L0-HDV-12 ssm_L0-HDV-12" vType="L0-HDV-60" speedFactor="0.89" vaporized="">
        <emissions CO_abs="1757.155315" CO2_abs="162411.085696" HC_abs="11.105141" PMx_abs="2.291996" NOx_abs="60.884369" fuel_abs="69.813890" electricity_abs="0"/>
    </tripinfo>
    <tripinfo id="L0-HDV-2" depart="126.00" departLane="bottom-approaching_0" departPos="5.10" departSpeed="0.00" departDelay="0.00" arrival="238.40" arrivalLane="right-exit_1" arrivalPos="486.40" arrivalSpeed="17.23" duration="112.40" routeLength="979.43" waitingTime="38.20" waitingCount="1" stopTime="0.00" timeLoss="54.96" rerouteNo="0" devices="tripinfo_L0-HDV-2 emissions_L0-HDV-2 ssm_L0-HDV-2" vType="L0-HDV-32" speedFactor="1.04" vaporized="">
        <emissions CO_abs="9909.697251" CO2_abs="347380.049554" HC_abs="53.237240" PMx_abs="6.943415" NOx_abs="145.384264" fuel_abs="149.326675" electricity_abs="0"/>
    </tripinfo>
    <tripinfo id="L4-CV-0" depart="120.00" departLane="bottom-approaching_0" departPos="5.10" departSpeed="0.00" departDelay="0.00" arrival="238.60" arrivalLane="right-exit_0" arrivalPos="486.40" arrivalSpeed="16.26" duration="118.60" routeLength="979.43" waitingTime="41.40" waitingCount="1" stopTime="0.00" timeLoss="57.40" rerouteNo="0" devices="tripinfo_L4-CV-0 emissions_L4-CV-0 ssm_L4-CV-0 toc_L4-CV-0 driverstateL4-CV-0" vType="L4-CV-89" speedFactor="0.98" vaporized="">
        <emissions CO_abs="9627.022034" CO2_abs="352746.253853" HC_abs="49.506289" PMx_abs="5.939256" NOx_abs="138.233376" fuel_abs="151.634521" electricity_abs="0"/>
    </tripinfo>
    <tripinfo id="L0-HDV-8" depart="144.00" departLane="bottom-approaching_0" departPos="5.10" departSpeed="0.00" departDelay="0.00" arrival="241.70" arrivalLane="right-exit_0" arrivalPos="486.40" arrivalSpeed="15.92" duration="97.70" routeLength="979.43" waitingTime="21.10" waitingCount="1" stopTime="0.00" timeLoss="35.73" rerouteNo="0" devices="tripinfo_L0-HDV-8 emissions_L0-HDV-8 ssm_L0-HDV-8" vType="L0-HDV-3" speedFactor="0.96" vaporized="">
        <emissions CO_abs="7450.472086" CO2_abs="312915.798141" HC_abs="41.285575" PMx_abs="6.196756" NOx_abs="131.090107" fuel_abs="134.510462" electricity_abs="0"/>
    </tripinfo>
    <tripinfo id="L2-AV-3" depart="159.50" departLane="bottom-approaching_0" departPos="5.10" departSpeed="0.00" departDelay="3.50" arrival="245.80" arrivalLane="right-exit_0" arrivalPos="486.40" arrivalSpeed="16.95" duration="86.30" routeLength="979.43" waitingTime="0.00" waitingCount="0" stopTime="0.00" timeLoss="27.48" rerouteNo="0" devices="tripinfo_L2-AV-3 emissions_L2-AV-3 ssm_L2-AV-3 toc_L2-AV-3 driverstateL2-AV-3" vType="L2-AV-59" speedFactor="1.02" vaporized="">
        <emissions CO_abs="3111.235425" CO2_abs="254765.628567" HC_abs="18.112204" PMx_abs="3.527733" NOx_abs="93.827678" fuel_abs="109.513692" electricity_abs="0"/>
    </tripinfo>
    <tripinfo id="L0-HDV-17" depart="171.00" departLane="bottom-approaching_0" departPos="5.10" departSpeed="0.00" departDelay="0.00" arrival="249.50" arrivalLane="right-exit_0" arrivalPos="486.40" arrivalSpeed="16.16" duration="78.50" routeLength="979.43" waitingTime="0.00" waitingCount="0" stopTime="0.00" timeLoss="17.09" rerouteNo="0" devices="tripinfo_L0-HDV-17 emissions_L0-HDV-17 ssm_L0-HDV-17" vType="L0-HDV-34" speedFactor="0.97" vaporized="">
        <emissions CO_abs="3303.909708" CO2_abs="235818.294580" HC_abs="20.528319" PMx_abs="4.003946" NOx_abs="94.003799" fuel_abs="101.368300" electricity_abs="0"/>
    </tripinfo>
    <tripinfo id="L2-CV-5" depart="180.50" departLane="top-approaching_0" departPos="5.10" departSpeed="0.00" departDelay="0.50" arrival="252.80" arrivalLane="bottom-exit_0" arrivalPos="486.40" arrivalSpeed="16.76" duration="72.30" routeLength="994.90" waitingTime="0.00" waitingCount="0" stopTime="0.00" timeLoss="12.80" rerouteNo="0" devices="tripinfo_L2-CV-5 emissions_L2-CV-5 ssm_L2-CV-5 toc_L2-CV-5 driverstateL2-CV-5" vType="L2-CV-38" speedFactor="1.01" vaporized="">
        <emissions CO_abs="2328.260046" CO2_abs="246394.544079" HC_abs="13.803661" PMx_abs="3.287399" NOx_abs="88.762970" fuel_abs="105.914903" electricity_abs="0"/>
    </tripinfo>
    <tripinfo id="L0-HDV-16" depart="171.90" departLane="top-approaching_0" departPos="5.10" departSpeed="0.00" departDelay="3.90" arrival="254.40" arrivalLane="right-exit_0" arrivalPos="486.40" arrivalSpeed="18.04" duration="82.50" routeLength="992.21" waitingTime="7.40" waitingCount="1" stopTime="0.00" timeLoss="26.58" rerouteNo="0" devices="tripinfo_L0-HDV-16 emissions_L0-HDV-16 ssm_L0-HDV-16" vType="L0-HDV-90" speedFactor="1.08" vaporized="">
        <emissions CO_abs="4541.103396" CO2_abs="242876.024748" HC_abs="26.156838" PMx_abs="4.355430" NOx_abs="97.444200" fuel_abs="104.402794" electricity_abs="0"/>
    </tripinfo>
    <tripinfo id="L2-CV-4" depart="168.00" departLane="top-approaching_0" departPos="5.10" departSpeed="0.00" departDelay="0.00" arrival="255.80" arrivalLane="right-exit_1" arrivalPos="486.40" arrivalSpeed="19.64" duration="87.80" routeLength="992.21" waitingTime="11.30" waitingCount="1" stopTime="0.00" timeLoss="36.45" rerouteNo="0" devices="tripinfo_L2-CV-4 emissions_L2-CV-4 ssm_L2-CV-4 toc_L2-CV-4 driverstateL2-CV-4" vType="L0-HDV-61" speedFactor="1.18" vaporized="">
        <emissions CO_abs="5420.573678" CO2_abs="303024.073524" HC_abs="30.949709" PMx_abs="5.075757" NOx_abs="118.152871" fuel_abs="130.258415" electricity_abs="0"/>
    </tripinfo>
    <tripinfo id="L0-HDV-10" depart="150.50" departLane="top-approaching_0" departPos="5.10" departSpeed="0.00" departDelay="0.50" arrival="257.50" arrivalLane="right-exit_0" arrivalPos="486.40" arrivalSpeed="14.70" duration="107.00" routeLength="992.21" waitingTime="15.00" waitingCount="2" stopTime="0.00" timeLoss="38.46" rerouteNo="0" devices="tripinfo_L0-HDV-10 emissions_L0-HDV-10 ssm_L0-HDV-10" vType="L0-HDV-0" speedFactor="0.88" vaporized="">
        <emissions CO_abs="6231.515215" CO2_abs="252474.046226" HC_abs="33.895853" PMx_abs="4.191658" NOx_abs="100.342711" fuel_abs="108.530274" electricity_abs="0"/>
    </tripinfo>
    <tripinfo id="L0-HDV-19" depart="177.00" departLane="top-approaching_0" departPos="5.10" departSpeed="0.00" departDelay="0.00" arrival="257.50" arrivalLane="right-exit_1" arrivalPos="486.40" arrivalSpeed="20.53" duration="80.50" routeLength="992.21" waitingTime="1.00" waitingCount="1" stopTime="0.00" timeLoss="31.59" rerouteNo="0" devices="tripinfo_L0-HDV-19 emissions_L0-HDV-19 ssm_L0-HDV-19" vType="L0-HDV-30" speedFactor="1.24" vaporized="">
        <emissions CO_abs="4174.513790" CO2_abs="271380.225606" HC_abs="25.332540" PMx_abs="4.773376" NOx_abs="107.965132" fuel_abs="116.655063" electricity_abs="0"/>
    </tripinfo>
    <tripinfo id="L0-HDV-25" depart="195.00" departLane="top-approaching_0" departPos="5.10" departSpeed="0.00" departDelay="0.00" arrival="259.00" arrivalLane="right-exit_1" arrivalPos="486.40" arrivalSpeed="19.62" duration="64.00" routeLength="992.21" waitingTime="0.00" waitingCount="0" stopTime="0.00" timeLoss="12.64" rerouteNo="0" devices="tripinfo_L0-HDV-25 emissions_L0-HDV-25 ssm_L0-HDV-25" vType="L0-HDV-58" speedFactor="1.18" vaporized="">
        <emissions CO_abs="2345.826887" CO2_abs="217655.914326" HC_abs="15.600635" PMx_abs="3.678628" NOx_abs="84.447580" fuel_abs="93.560679" electricity_abs="0"/>
    </tripinfo>
    <tripinfo id="L0-HDV-5" depart="135.00" departLane="left-long-approaching_0" departPos="5.10" departSpeed="0.00" departDelay="0.00" arrival="278.00" arrivalLane="top-exit_1" arrivalPos="486.40" arrivalSpeed="17.04" duration="143.00" routeLength="1392.31" waitingTime="49.70" waitingCount="1" stopTime="0.00" timeLoss="60.34" rerouteNo="0" devices="tripinfo_L0-HDV-5 emissions_L0-HDV-5 ssm_L0-HDV-5" vType="L0-HDV-Left-19" speedFactor="1.02" vaporized="">
        <emissions CO_abs="10441.313396" CO2_abs="335244.356058" HC_abs="53.633160" PMx_abs="6.383910" NOx_abs="136.572998" fuel_abs="144.111053" electricity_abs="0"/>
    </tripinfo>
    <tripinfo id="L2-CV-2" depart="144.00" departLane="right-approaching_0" departPos="5.10" departSpeed="0.00" departDelay="0.00" arrival="278.90" arrivalLane="top-exit_0" arrivalPos="486.40" arrivalSpeed="20.01" duration="134.90" routeLength="979.43" waitingTime="62.90" waitingCount="1" stopTime="0.00" timeLoss="85.08" rerouteNo="0" devices="tripinfo_L2-CV-2 emissions_L2-CV-2 ssm_L2-CV-2 toc_L2-CV-2 driverstateL2-CV-2" vType="L2-CV-0" speedFactor="1.20" vaporized="">
        <emissions CO_abs="14027.057942" CO2_abs="446671.238488" HC_abs="73.188895" PMx_abs="8.711375" NOx_abs="182.488024" fuel_abs="192.010069" electricity_abs="0"/>
    </tripinfo>
    <tripinfo id="L4-CV-1" depart="156.00" departLane="left-long-approaching_0" departPos="5.10" departSpeed="0.00" departDelay="0.00" arrival="279.00" arrivalLane="right-exit_0" arrivalPos="486.40" arrivalSpeed="18.72" duration="123.00" routeLength="1395.23" waitingTime="30.40" waitingCount="1" stopTime="0.00" timeLoss="48.39" rerouteNo="0" devices="tripinfo_L4-CV-1 emissions_L4-CV-1 ssm_L4-CV-1 toc_L4-CV-1 driverstateL4-CV-1" vType="L4-CV-15@L4-CV-1" speedFactor="1.12" vaporized="">
        <emissions CO_abs="8056.153147" CO2_abs="408238.782806" HC_abs="43.182452" PMx_abs="6.580838" NOx_abs="153.756703" fuel_abs="175.487243" electricity_abs="0"/>
    </tripinfo>
    <tripinfo id="L2-AV-0" depart="120.00" departLane="left-long-approaching_0" departPos="5.10" departSpeed="0.00" departDelay="0.00" arrival="280.50" arrivalLane="bottom-exit_0" arrivalPos="486.40" arrivalSpeed="16.59" duration="160.50" routeLength="1379.53" waitingTime="61.60" waitingCount="1" stopTime="0.00" timeLoss="76.40" rerouteNo="0" devices="tripinfo_L2-AV-0 emissions_L2-AV-0 ssm_L2-AV-0 toc_L2-AV-0 driverstateL2-AV-0" vType="L2-AV-Right-56" speedFactor="1.00" vaporized="">
        <emissions CO_abs="12865.784322" CO2_abs="469060.151108" HC_abs="65.456947" PMx_abs="7.752994" NOx_abs="181.291640" fuel_abs="201.634514" electricity_abs="0"/>
    </tripinfo>
    <tripinfo id="L2-CV-6" depart="192.00" departLane="left-long-approaching_0" departPos="5.10" departSpeed="0.00" departDelay="0.00" arrival="284.40" arrivalLane="bottom-exit_0" arrivalPos="486.40" arrivalSpeed="16.58" duration="92.40" routeLength="1379.53" waitingTime="0.00" waitingCount="0" stopTime="0.00" timeLoss="8.22" rerouteNo="0" devices="tripinfo_L2-CV-6 emissions_L2-CV-6 ssm_L2-CV-6 toc_L2-CV-6 driverstateL2-CV-6" vType="L2-CV-Right-41" speedFactor="0.99" vaporized="">
        <emissions CO_abs="1803.573590" CO2_abs="290135.058698" HC_abs="11.337431" PMx_abs="3.268967" NOx_abs="99.037216" fuel_abs="124.717329" electricity_abs="0"/>
    </tripinfo>
    <tripinfo id="L4-CV-2" depart="195.00" departLane="right-approaching_0" departPos="5.10" departSpeed="0.00" departDelay="3.00" arrival="288.40" arrivalLane="bottom-exit_0" arrivalPos="486.40" arrivalSpeed="16.52" duration="93.40" routeLength="992.21" waitingTime="13.70" waitingCount="2" stopTime="0.00" timeLoss="32.32" rerouteNo="0" devices="tripinfo_L4-CV-2 emissions_L4-CV-2 ssm_L4-CV-2 toc_L4-CV-2 driverstateL4-CV-2" vType="L4-CV-12" speedFactor="0.99" vaporized="">
        <emissions CO_abs="5392.779933" CO2_abs="292039.581867" HC_abs="28.876821" PMx_abs="4.385617" NOx_abs="109.942217" fuel_abs="125.537275" electricity_abs="0"/>
    </tripinfo>
    <tripinfo id="L4-AV-2" depart="192.00" departLane="right-approaching_0" departPos="5.10" departSpeed="0.00" departDelay="0.00" arrival="290.40" arrivalLane="top-exit_0" arrivalPos="486.40" arrivalSpeed="13.99" duration="98.40" routeLength="979.43" waitingTime="0.00" waitingCount="0" stopTime="0.00" timeLoss="27.27" rerouteNo="0" devices="tripinfo_L4-AV-2 emissions_L4-AV-2 ssm_L4-AV-2 toc_L4-AV-2 driverstateL4-AV-2" vType="L4-AV-74" speedFactor="0.84" vaporized="">
        <emissions CO_abs="2508.351549" CO2_abs="230568.254505" HC_abs="15.057847" PMx_abs="2.649823" NOx_abs="82.271864" fuel_abs="99.112709" electricity_abs="0"/>
    </tripinfo>
    <tripinfo id="L2-AV-8" depart="216.00" departLane="right-approaching_0" departPos="5.10" departSpeed="0.00" departDelay="0.00" arrival="291.20" arrivalLane="top-exit_1" arrivalPos="486.40" arrivalSpeed="19.05" duration="75.20" routeLength="979.43" waitingTime="0.00" waitingCount="0" stopTime="0.00" timeLoss="22.94" rerouteNo="0" devices="tripinfo_L2-AV-8 emissions_L2-AV-8 ssm_L2-AV-8 toc_L2-AV-8 driverstateL2-AV-8" vType="L2-AV-34" speedFactor="1.14" vaporized="">
        <emissions CO_abs="2826.174205" CO2_abs="218800.569950" HC_abs="17.202142" PMx_abs="3.504290" NOx_abs="84.830045" fuel_abs="94.053186" electricity_abs="0"/>
    </tripinfo>
    <tripinfo id="L0-HDV-18" depart="174.00" departLane="left-long-approaching_0" departPos="5.10" departSpeed="0.00" departDelay="0.00" arrival="293.20" arrivalLane="top-exit_1" arrivalPos="486.40" arrivalSpeed="20.47" duration="119.20" routeLength="1392.31" waitingTime="21.20" waitingCount="2" stopTime="0.00" timeLoss="50.66" rerouteNo="0" devices="tripinfo_L0-HDV-18 emissions_L0-HDV-18 ssm_L0-HDV-18" vType="L0-HDV-Left-30" speedFactor="1.23" vaporized="">
        <emissions CO_abs="8639.757154" CO2_abs="391724.370381" HC_abs="48.577083" PMx_abs="7.501129" NOx_abs="159.195225" fuel_abs="168.387378" electricity_abs="0"/>
    </tripinfo>
    <tripinfo id="L0-HDV-27" depart="201.00" departLane="left-long-approaching_0" departPos="5.10" departSpeed="0.00" departDelay="0.00" arrival="294.10" arrivalLane="bottom-exit_0" arrivalPos="486.40" arrivalSpeed="17.59" duration="93.10" routeLength="1379.53" waitingTime="0.00" waitingCount="0" stopTime="0.00" timeLoss="13.77" rerouteNo="0" devices="tripinfo_L0-HDV-27 emissions_L0-HDV-27 ssm_L0-HDV-27" vType="L0-HDV-38" speedFactor="1.06" vaporized="">
        <emissions CO_abs="2599.960528" CO2_abs="243393.303326" HC_abs="17.038141" PMx_abs="3.667312" NOx_abs="91.480171" fuel_abs="104.624676" electricity_abs="0"/>
    </tripinfo>
    <tripinfo id="L0-HDV-24" depart="198.50" departLane="right-approaching_0" departPos="5.10" departSpeed="0.00" departDelay="6.50" arrival="296.60" arrivalLane="bottom-exit_1" arrivalPos="486.40" arrivalSpeed="16.81" duration="98.10" routeLength="992.21" waitingTime="16.00" waitingCount="3" stopTime="0.00" timeLoss="38.69" rerouteNo="0" devices="tripinfo_L0-HDV-24 emissions_L0-HDV-24 ssm_L0-HDV-24" vType="L0-HDV-3" speedFactor="1.02" vaporized="">
        <emissions CO_abs="7038.749849" CO2_abs="308554.518702" HC_abs="39.295155" PMx_abs="6.090793" NOx_abs="128.804178" fuel_abs="132.635513" electricity_abs="0"/>
    </tripinfo>
    <tripinfo id="L2-CV-3" depart="156.00" departLane="bottom-approaching_0" departPos="5.10" departSpeed="0.00" departDelay="0.00" arrival="299.30" arrivalLane="left-exit_0" arrivalPos="810.00" arrivalSpeed="18.87" duration="143.30" routeLength="1392.31" waitingTime="47.20" waitingCount="6" stopTime="0.00" timeLoss="68.57" rerouteNo="0" devices="tripinfo_L2-CV-3 emissions_L2-CV-3 ssm_L2-CV-3 toc_L2-CV-3 driverstateL2-CV-3" vType="L2-CV-7@L2-CV-3" speedFactor="1.13" vaporized="">
        <emissions CO_abs="11420.074133" CO2_abs="459176.190779" HC_abs="59.941101" PMx_abs="8.234760" NOx_abs="180.240584" fuel_abs="197.384066" electricity_abs="0"/>
    </tripinfo>
    <tripinfo id="L0-HDV-32" depart="216.00" departLane="left-long-approaching_0" departPos="5.10" departSpeed="0.00" departDelay="0.00" arrival="303.10" arrivalLane="top-exit_1" arrivalPos="486.40" arrivalSpeed="19.18" duration="87.10" routeLength="1392.31" waitingTime="0.00" waitingCount="0" stopTime="0.00" timeLoss="13.65" rerouteNo="0" devices="tripinfo_L0-HDV-32 emissions_L0-HDV-32 ssm_L0-HDV-32" vType="L0-HDV-Left-1" speedFactor="1.15" vaporized="">
        <emissions CO_abs="2362.946548" CO2_abs="228257.420666" HC_abs="15.206586" PMx_abs="3.710885" NOx_abs="86.834817" fuel_abs="98.117889" electricity_abs="0"/>
    </tripinfo>
    <tripinfo id="L2-AV-6" depart="195.00" departLane="left-long-approaching_0" departPos="5.10" departSpeed="0.00" departDelay="3.00" arrival="303.40" arrivalLane="top-exit_0" arrivalPos="486.40" arrivalSpeed="16.60" duration="108.40" routeLength="1392.31" waitingTime="0.10" waitingCount="1" stopTime="0.00" timeLoss="23.52" rerouteNo="0" devices="tripinfo_L2-AV-6 emissions_L2-AV-6 ssm_L2-AV-6 toc_L2-AV-6 driverstateL2-AV-6" vType="L2-AV-Left-88" speedFactor="1.00" vaporized="">
        <emissions CO_abs="3303.979578" CO2_abs="324427.260247" HC_abs="18.928790" PMx_abs="3.994862" NOx_abs="114.850590" fuel_abs="139.458614" electricity_abs="0"/>
    </tripinfo>
    <tripinfo id="L0-HDV-28" depart="205.00" departLane="left-long-approaching_0" departPos="5.10" departSpeed="0.00" departDelay="1.00" arrival="305.10" arrivalLane="bottom-exit_0" arrivalPos="486.40" arrivalSpeed="14.71" duration="100.10" routeLength="1379.53" waitingTime="0.00" waitingCount="0" stopTime="0.00" timeLoss="5.25" rerouteNo="0" devices="tripinfo_L0-HDV-28 emissions_L0-HDV-28 ssm_L0-HDV-28" vType="L0-HDV-29" speedFactor="0.88" vaporized="">
        <emissions CO_abs="2487.229638" CO2_abs="243737.609584" HC_abs="16.811890" PMx_abs="3.767413" NOx_abs="93.806030" fuel_abs="104.772322" electricity_abs="0"/>
    </tripinfo>
    <tripinfo id="L0-HDV-30" depart="210.00" departLane="right-approaching_0" departPos="5.10" departSpeed="0.00" departDelay="0.00" arrival="305.70" arrivalLane="bottom-exit_1" arrivalPos="486.40" arrivalSpeed="19.40" duration="95.70" routeLength="992.21" waitingTime="8.70" waitingCount="3" stopTime="0.00" timeLoss="43.78" rerouteNo="0" devices="tripinfo_L0-HDV-30 emissions_L0-HDV-30 ssm_L0-HDV-30" vType="L0-HDV-99" speedFactor="1.16" vaporized="">
        <emissions CO_abs="6123.975950" CO2_abs="286325.929742" HC_abs="34.461800" PMx_abs="5.169320" NOx_abs="115.256663" fuel_abs="123.080805" electricity_abs="0"/>
    </tripinfo>
    <tripinfo id="L2-CV-9" depart="228.00" departLane="left-long-approaching_0" departPos="5.10" departSpeed="0.00" departDelay="0.00" arrival="318.60" arrivalLane="top-exit_0" arrivalPos="486.40" arrivalSpeed="17.00" duration="90.60" routeLength="1397.47" waitingTime="0.00" waitingCount="0" stopTime="0.00" timeLoss="7.46" rerouteNo="0" devices="tripinfo_L2-CV-9 emissions_L2-CV-9 ssm_L2-CV-9 toc_L2-CV-9 driverstateL2-CV-9" vType="L2-CV-Left-30@L2-CV-9" speedFactor="1.02" vaporized="">
        <emissions CO_abs="1697.349861" CO2_abs="288731.431845" HC_abs="10.517092" PMx_abs="3.201343" NOx_abs="97.356101" fuel_abs="124.113986" electricity_abs="0"/>
    </tripinfo>
    <tripinfo id="L0-HDV-9" depart="147.00" departLane="top-approaching_0" departPos="5.10" departSpeed="0.00" departDelay="0.00" arrival="332.80" arrivalLane="left-exit_0" arrivalPos="810.00" arrivalSpeed="15.65" duration="185.80" routeLength="1379.53" waitingTime="73.10" waitingCount="3" stopTime="0.00" timeLoss="96.83" rerouteNo="0" devices="tripinfo_L0-HDV-9 emissions_L0-HDV-9 ssm_L0-HDV-9" vType="L0-HDV-66@L0-HDV-9" speedFactor="0.94" vaporized="">
        <emissions CO_abs="15596.202662" CO2_abs="443674.436155" HC_abs="80.835761" PMx_abs="8.619067" NOx_abs="184.110362" fuel_abs="190.723119" electricity_abs="0"/>
    </tripinfo>
    <tripinfo id="L0-HDV-35" depart="225.00" departLane="bottom-approaching_0" departPos="5.10" departSpeed="0.00" departDelay="0.00" arrival="333.00" arrivalLane="top-exit_1" arrivalPos="486.40" arrivalSpeed="23.92" duration="108.00" routeLength="994.90" waitingTime="47.20" waitingCount="1" stopTime="0.00" timeLoss="66.37" rerouteNo="0" devices="tripinfo_L0-HDV-35 emissions_L0-HDV-35 ssm_L0-HDV-35" vType="L0-HDV-2" speedFactor="1.44" vaporized="">
        <emissions CO_abs="12292.261299" CO2_abs="410966.072313" HC_abs="65.859475" PMx_abs="9.046266" NOx_abs="175.563228" fuel_abs="176.659534" electricity_abs="0"/>
    </tripinfo>
    <tripinfo id="L0-HDV-38" depart="234.00" departLane="top-approaching_0" departPos="5.10" departSpeed="0.00" departDelay="0.00" arrival="337.00" arrivalLane="bottom-exit_1" arrivalPos="486.40" arrivalSpeed="19.69" duration="103.00" routeLength="994.90" waitingTime="37.40" waitingCount="1" stopTime="0.00" timeLoss="52.37" rerouteNo="0" devices="tripinfo_L0-HDV-38 emissions_L0-HDV-38 ssm_L0-HDV-38" vType="L0-HDV-24" speedFactor="1.18" vaporized="">
        <emissions CO_abs="9203.343187" CO2_abs="318411.145776" HC_abs="49.025930" PMx_abs="6.402984" NOx_abs="132.069858" fuel_abs="136.874073" electricity_abs="0"/>
    </tripinfo>
    <tripinfo id="L0-HDV-26" depart="198.00" departLane="bottom-approaching_0" departPos="5.10" departSpeed="0.00" departDelay="0.00" arrival="337.60" arrivalLane="right-exit_0" arrivalPos="486.40" arrivalSpeed="16.91" duration="139.60" routeLength="979.43" waitingTime="69.30" waitingCount="1" stopTime="0.00" timeLoss="80.79" rerouteNo="0" devices="tripinfo_L0-HDV-26 emissions_L0-HDV-26 ssm_L0-HDV-26" vType="L0-HDV-70" speedFactor="1.02" vaporized="">
        <emissions CO_abs="13937.011182" CO2_abs="378433.509114" HC_abs="71.799359" PMx_abs="7.761624" NOx_abs="159.565117" fuel_abs="162.677795" electricity_abs="0"/>
    </tripinfo>
    <tripinfo id="L0-HDV-31" depart="213.00" departLane="top-approaching_0" departPos="5.10" departSpeed="0.00" departDelay="0.00" arrival="337.70" arrivalLane="bottom-exit_0" arrivalPos="486.40" arrivalSpeed="17.73" duration="124.70" routeLength="994.90" waitingTime="53.50" waitingCount="1" stopTime="0.00" timeLoss="68.58" rerouteNo="0" devices="tripinfo_L0-HDV-31 emissions_L0-HDV-31 ssm_L0-HDV-31" vType="L0-HDV-4" speedFactor="1.06" vaporized="">
        <emissions CO_abs="12147.562163" CO2_abs="375076.857204" HC_abs="64.093002" PMx_abs="7.797647" NOx_abs="159.038753" fuel_abs="161.233343" electricity_abs="0"/>
    </tripinfo>
    <tripinfo id="L0-HDV-48" depart="264.00" departLane="bottom-approaching_0" departPos="5.10" departSpeed="0.00" departDelay="0.00" arrival="338.10" arrivalLane="right-exit_1" arrivalPos="486.40" arrivalSpeed="18.61" duration="74.10" routeLength="979.43" waitingTime="5.30" waitingCount="1" stopTime="0.00" timeLoss="21.12" rerouteNo="0" devices="tripinfo_L0-HDV-48 emissions_L0-HDV-48 ssm_L0-HDV-48" vType="L0-HDV-22" speedFactor="1.13" vaporized="">
        <emissions CO_abs="4763.320708" CO2_abs="278379.919489" HC_abs="28.266825" PMx_abs="5.415653" NOx_abs="114.848377" fuel_abs="119.663484" electricity_abs="0"/>
    </tripinfo>
    <tripinfo id="L0-HDV-29" depart="207.00" departLane="bottom-approaching_0" departPos="5.10" departSpeed="0.00" departDelay="0.00" arrival="338.80" arrivalLane="top-exit_0" arrivalPos="486.40" arrivalSpeed="16.35" duration="131.80" routeLength="994.90" waitingTime="60.20" waitingCount="1" stopTime="0.00" timeLoss="70.92" rerouteNo="0" devices="tripinfo_L0-HDV-29 emissions_L0-HDV-29 ssm_L0-HDV-29" vType="L0-HDV-31" speedFactor="0.98" vaporized="">
        <emissions CO_abs="12202.448269" CO2_abs="342697.750161" HC_abs="62.873310" PMx_abs="6.884287" NOx_abs="143.465564" fuel_abs="147.315840" electricity_abs="0"/>
    </tripinfo>
    <tripinfo id="L2-CV-10" depart="240.00" departLane="top-approaching_0" departPos="5.10" departSpeed="0.00" departDelay="0.00" arrival="339.40" arrivalLane="bottom-exit_0" arrivalPos="486.40" arrivalSpeed="19.66" duration="99.40" routeLength="994.90" waitingTime="27.30" waitingCount="1" stopTime="0.00" timeLoss="48.80" rerouteNo="0" devices="tripinfo_L2-CV-10 emissions_L2-CV-10 ssm_L2-CV-10 toc_L2-CV-10 driverstateL2-CV-10" vType="L2-CV-42" speedFactor="1.18" vaporized="">
        <emissions CO_abs="6240.530382" CO2_abs="306673.586197" HC_abs="34.936993" PMx_abs="5.580153" NOx_abs="121.573692" fuel_abs="131.827278" electricity_abs="0"/>
    </tripinfo>
    <tripinfo id="L2-AV-10" depart="242.90" departLane="top-approaching_0" departPos="5.10" departSpeed="0.00" departDelay="2.90" arrival="341.90" arrivalLane="bottom-exit_0" arrivalPos="486.40" arrivalSpeed="18.04" duration="99.00" routeLength="994.90" waitingTime="0.00" waitingCount="0" stopTime="0.00" timeLoss="43.77" rerouteNo="0" devices="tripinfo_L2-AV-10 emissions_L2-AV-10 ssm_L2-AV-10 toc_L2-AV-10 driverstateL2-AV-10" vType="L2-AV-48" speedFactor="1.08" vaporized="">
        <emissions CO_abs="2998.443324" CO2_abs="253211.721783" HC_abs="17.181304" PMx_abs="3.788332" NOx_abs="93.557622" fuel_abs="108.845291" electricity_abs="0"/>
    </tripinfo>