<?xml version="1.0" encoding="UTF-8"?>

<!-- generated on 03/23/21 17:13:03 by Eclipse SUMO sumo Version 1.8.0
<configuration xmlns:xsi="http://www.w3.org/2001/XMLSchema-instance" xsi:noNamespaceSchemaLocation="http://sumo.dlr.de/xsd/sumoConfiguration.xsd">

    <input>
        <net-file value="Collision\RealTMSPenetration1\../CollisionIntersection.net.xml"/>
        <route-files value="Collision\RealTMSPenetration1\../CrashedVehicleRoutes.rou.xml,Collision\RealTMSPenetration1\Route-Files/L4-CV-Route.rou.xml,Collision\RealTMSPenetration1\Route-Files/L4-AV-Route.rou.xml,Collision\RealTMSPenetration1\Route-Files/L2-CV-Route.rou.xml,Collision\RealTMSPenetration1\Route-Files/L2-AV-Route.rou.xml,Collision\RealTMSPenetration1\Route-Files/L0-HDV-Route.rou.xml"/>
        <additional-files value="Collision\RealTMSPenetration1\../Additional-Files/Collision-Detectors.add.xml,Collision\RealTMSPenetration1\../Additional-Files/Collision-TMS-Rerouters.add.xml,Collision\RealTMSPenetration1\PreparingVehicleModels/Vehicle-Models/L4-CV.add.xml,Collision\RealTMSPenetration1\PreparingVehicleModels/Vehicle-Models/L4-CV-Left.add.xml,Collision\RealTMSPenetration1\PreparingVehicleModels/Vehicle-Models/L4-CV-Right.add.xml,Collision\RealTMSPenetration1\PreparingVehicleModels/Vehicle-Models/L4-AV.add.xml,Collision\RealTMSPenetration1\PreparingVehicleModels/Vehicle-Models/L4-AV-Left.add.xml,Collision\RealTMSPenetration1\PreparingVehicleModels/Vehicle-Models/L4-AV-Right.add.xml,Collision\RealTMSPenetration1\PreparingVehicleModels/Vehicle-Models/L2-CV.add.xml,Collision\RealTMSPenetration1\PreparingVehicleModels/Vehicle-Models/L2-CV-Left.add.xml,Collision\RealTMSPenetration1\PreparingVehicleModels/Vehicle-Models/L2-CV-Right.add.xml,Collision\RealTMSPenetration1\PreparingVehicleModels/Vehicle-Models/L2-AV.add.xml,Collision\RealTMSPenetration1\PreparingVehicleModels/Vehicle-Models/L2-AV-Left.add.xml,Collision\RealTMSPenetration1\PreparingVehicleModels/Vehicle-Models/L2-AV-Right.add.xml,Collision\RealTMSPenetration1\PreparingVehicleModels/Vehicle-Models/L0-HDV.add.xml,Collision\RealTMSPenetration1\PreparingVehicleModels/Vehicle-Models/L0-HDV-Left.add.xml,Collision\RealTMSPenetration1\PreparingVehicleModels/Vehicle-Models/L0-HDV-Straight.add.xml,Collision\RealTMSPenetration1\../Additional-Files/Collision-Traffic-lights.add.xml,Collision\RealTMSPenetration1\../Additional-Files/Collision-Traffic-Signs.add.xml"/>
    </input>

    <output>
        <tripinfo-output value="Collision\RealTMSPenetration1\Output-Files\TripInfo.xml"/>
    </output>

    <time>
        <begin value="0"/>
        <step-length value="0.1"/>
    </time>

    <processing>
        <ignore-route-errors value="true"/>
        <waiting-time-memory value="300"/>
        <default.action-step-length value="0.1"/>
    </processing>

    <emissions>
        <device.emissions.probability value="1"/>
    </emissions>

    <traci_server>
        <remote-port value="55840"/>
    </traci_server>

    <gui_only>
        <start value="true"/>
        <tracker-interval value="0.1"/>
    </gui_only>

</configuration>
-->

<tripinfos xmlns:xsi="http://www.w3.org/2001/XMLSchema-instance" xsi:noNamespaceSchemaLocation="http://sumo.dlr.de/xsd/tripinfo_file.xsd">
    <tripinfo id="L4-CV-3" depart="129.00" departLane="right-approaching_0" departPos="5.10" departSpeed="0.00" departDelay="0.00" arrival="198.50" arrivalLane="top-exit_0" arrivalPos="486.40" arrivalSpeed="16.52" duration="69.50" routeLength="979.43" waitingTime="0.00" waitingCount="0" stopTime="0.00" timeLoss="9.19" rerouteNo="0" devices="tripinfo_L4-CV-3 emissions_L4-CV-3 ssm_L4-CV-3 toc_L4-CV-3 driverstateL4-CV-3" vType="L4-CV-12" speedFactor="0.99" vaporized="">
        <emissions CO_abs="2091.422336" CO2_abs="231394.907468" HC_abs="12.200725" PMx_abs="2.908305" NOx_abs="82.110150" fuel_abs="99.467319" electricity_abs="0"/>
    </tripinfo>
    <tripinfo id="L4-AV-1" depart="132.50" departLane="right-approaching_0" departPos="5.10" departSpeed="0.00" departDelay="0.50" arrival="200.90" arrivalLane="bottom-exit_0" arrivalPos="486.40" arrivalSpeed="16.83" duration="68.40" routeLength="992.21" waitingTime="0.00" waitingCount="0" stopTime="0.00" timeLoss="8.50" rerouteNo="0" devices="tripinfo_L4-AV-1 emissions_L4-AV-1 ssm_L4-AV-1 toc_L4-AV-1 driverstateL4-AV-1" vType="L4-AV-21" speedFactor="1.01" vaporized="">
        <emissions CO_abs="2062.509740" CO2_abs="231361.526143" HC_abs="11.974852" PMx_abs="3.068690" NOx_abs="82.844183" fuel_abs="99.452702" electricity_abs="0"/>
    </tripinfo>
    <tripinfo id="L2-AV-0" depart="127.50" departLane="bottom-approaching_0" departPos="5.10" departSpeed="0.00" departDelay="7.50" arrival="237.30" arrivalLane="right-exit_0" arrivalPos="486.40" arrivalSpeed="16.59" duration="109.80" routeLength="979.43" waitingTime="35.20" waitingCount="1" stopTime="0.00" timeLoss="49.82" rerouteNo="0" devices="tripinfo_L2-AV-0 emissions_L2-AV-0 ssm_L2-AV-0 toc_L2-AV-0 driverstateL2-AV-0" vType="L2-AV-56" speedFactor="1.00" vaporized="">
        <emissions CO_abs="8487.672207" CO2_abs="335846.288287" HC_abs="43.896004" PMx_abs="5.581018" NOx_abs="130.584086" fuel_abs="144.369310" electricity_abs="0"/>
    </tripinfo>
    <tripinfo id="L2-CV-0" depart="123.60" departLane="bottom-approaching_0" departPos="5.10" departSpeed="0.00" departDelay="3.60" arrival="238.40" arrivalLane="top-exit_1" arrivalPos="486.40" arrivalSpeed="20.01" duration="114.80" routeLength="994.90" waitingTime="35.10" waitingCount="21" stopTime="0.00" timeLoss="65.18" rerouteNo="0" devices="tripinfo_L2-CV-0 emissions_L2-CV-0 ssm_L2-CV-0 toc_L2-CV-0 driverstateL2-CV-0" vType="L2-CV-0" speedFactor="1.20" vaporized="">
        <emissions CO_abs="8250.554684" CO2_abs="351747.574159" HC_abs="45.148095" PMx_abs="6.443236" NOx_abs="140.502211" fuel_abs="151.203680" electricity_abs="0"/>
    </tripinfo>
    <tripinfo id="L4-CV-0" depart="120.00" departLane="bottom-approaching_0" departPos="5.10" departSpeed="0.00" departDelay="0.00" arrival="239.60" arrivalLane="top-exit_0" arrivalPos="486.40" arrivalSpeed="16.26" duration="119.60" routeLength="994.90" waitingTime="41.40" waitingCount="1" stopTime="0.00" timeLoss="58.30" rerouteNo="0" devices="tripinfo_L4-CV-0 emissions_L4-CV-0 ssm_L4-CV-0 toc_L4-CV-0 driverstateL4-CV-0" vType="L4-CV-89" speedFactor="0.98" vaporized="">
        <emissions CO_abs="9627.022034" CO2_abs="355336.325653" HC_abs="49.506289" PMx_abs="5.955692" NOx_abs="138.997457" fuel_abs="152.747893" electricity_abs="0"/>
    </tripinfo>
    <tripinfo id="L2-CV-1" depart="132.00" departLane="bottom-approaching_0" departPos="5.10" departSpeed="0.00" departDelay="0.00" arrival="241.60" arrivalLane="right-exit_0" arrivalPos="486.40" arrivalSpeed="15.69" duration="109.60" routeLength="979.43" waitingTime="24.40" waitingCount="1" stopTime="0.00" timeLoss="46.33" rerouteNo="0" devices="tripinfo_L2-CV-1 emissions_L2-CV-1 ssm_L2-CV-1 toc_L2-CV-1 driverstateL2-CV-1" vType="L2-CV-85" speedFactor="0.94" vaporized="">
        <emissions CO_abs="5422.364957" CO2_abs="290366.991465" HC_abs="29.429325" PMx_abs="4.178198" NOx_abs="108.729615" fuel_abs="124.818656" electricity_abs="0"/>
    </tripinfo>
    <tripinfo id="L4-CV-6" depart="138.90" departLane="top-approaching_0" departPos="5.10" departSpeed="0.00" departDelay="0.90" arrival="242.00" arrivalLane="bottom-exit_0" arrivalPos="486.40" arrivalSpeed="15.61" duration="103.10" routeLength="994.90" waitingTime="20.30" waitingCount="2" stopTime="0.00" timeLoss="39.28" rerouteNo="0" devices="tripinfo_L4-CV-6 emissions_L4-CV-6 ssm_L4-CV-6 toc_L4-CV-6 driverstateL4-CV-6" vType="L4-CV-81" speedFactor="0.94" vaporized="">
        <emissions CO_abs="6268.973638" CO2_abs="301022.568431" HC_abs="33.259260" PMx_abs="4.449787" NOx_abs="113.761047" fuel_abs="129.399425" electricity_abs="0"/>
    </tripinfo>
    <tripinfo id="L4-CV-8" depart="144.00" departLane="bottom-approaching_0" departPos="5.10" departSpeed="0.00" departDelay="0.00" arrival="243.80" arrivalLane="top-exit_0" arrivalPos="486.40" arrivalSpeed="16.25" duration="99.80" routeLength="994.90" waitingTime="13.90" waitingCount="22" stopTime="0.00" timeLoss="38.53" rerouteNo="0" devices="tripinfo_L4-CV-8 emissions_L4-CV-8 ssm_L4-CV-8 toc_L4-CV-8 driverstateL4-CV-8" vType="L4-CV-30" speedFactor="0.98" vaporized="">
        <emissions CO_abs="4955.313668" CO2_abs="284099.879088" HC_abs="26.886868" PMx_abs="4.113105" NOx_abs="106.114055" fuel_abs="122.124286" electricity_abs="0"/>
    </tripinfo>
    <tripinfo id="L4-CV-9" depart="147.00" departLane="top-approaching_0" departPos="5.10" departSpeed="0.00" departDelay="0.00" arrival="245.80" arrivalLane="bottom-exit_0" arrivalPos="486.40" arrivalSpeed="14.83" duration="98.80" routeLength="994.90" waitingTime="8.30" waitingCount="16" stopTime="0.00" timeLoss="31.63" rerouteNo="0" devices="tripinfo_L4-CV-9 emissions_L4-CV-9 ssm_L4-CV-9 toc_L4-CV-9 driverstateL4-CV-9" vType="L4-CV-95" speedFactor="0.89" vaporized="">
        <emissions CO_abs="4380.834139" CO2_abs="272518.005951" HC_abs="24.499740" PMx_abs="3.564109" NOx_abs="100.101643" fuel_abs="117.145931" electricity_abs="0"/>
    </tripinfo>
    <tripinfo id="L2-CV-3" depart="157.10" departLane="top-approaching_0" departPos="5.10" departSpeed="0.00" departDelay="1.10" arrival="246.70" arrivalLane="bottom-exit_1" arrivalPos="486.40" arrivalSpeed="17.68" duration="89.60" routeLength="994.90" waitingTime="2.50" waitingCount="25" stopTime="0.00" timeLoss="33.30" rerouteNo="0" devices="tripinfo_L2-CV-3 emissions_L2-CV-3 ssm_L2-CV-3 toc_L2-CV-3 driverstateL2-CV-3" vType="L2-CV-89" speedFactor="1.06" vaporized="">
        <emissions CO_abs="4216.440785" CO2_abs="244261.480464" HC_abs="24.160309" PMx_abs="3.886151" NOx_abs="94.476707" fuel_abs="104.998747" electricity_abs="0"/>
    </tripinfo>
    <tripinfo id="L4-CV-10" depart="151.00" departLane="bottom-approaching_0" departPos="5.10" departSpeed="0.00" departDelay="1.00" arrival="247.30" arrivalLane="right-exit_0" arrivalPos="486.40" arrivalSpeed="13.76" duration="96.30" routeLength="979.43" waitingTime="6.70" waitingCount="25" stopTime="0.00" timeLoss="23.95" rerouteNo="0" devices="tripinfo_L4-CV-10 emissions_L4-CV-10 ssm_L4-CV-10 toc_L4-CV-10 driverstateL4-CV-10" vType="L4-CV-2" speedFactor="0.83" vaporized="">
        <emissions CO_abs="3454.959665" CO2_abs="253909.098475" HC_abs="20.370501" PMx_abs="3.041330" NOx_abs="91.673694" fuel_abs="109.146565" electricity_abs="0"/>
    </tripinfo>
    <tripinfo id="L4-CV-18" depart="174.00" departLane="top-approaching_0" departPos="5.10" departSpeed="0.00" departDelay="0.00" arrival="247.30" arrivalLane="right-exit_1" arrivalPos="486.40" arrivalSpeed="16.76" duration="73.30" routeLength="992.21" waitingTime="1.60" waitingCount="1" stopTime="0.00" timeLoss="13.14" rerouteNo="0" devices="tripinfo_L4-CV-18 emissions_L4-CV-18 ssm_L4-CV-18 toc_L4-CV-18 driverstateL4-CV-18" vType="L4-CV-38" speedFactor="1.01" vaporized="">
        <emissions CO_abs="2616.480594" CO2_abs="245332.568565" HC_abs="15.020019" PMx_abs="3.326402" NOx_abs="88.751785" fuel_abs="105.458556" electricity_abs="0"/>
    </tripinfo>
    <tripinfo id="L4-AV-3" depart="158.80" departLane="bottom-approaching_0" departPos="5.10" departSpeed="0.00" departDelay="2.80" arrival="248.90" arrivalLane="right-exit_0" arrivalPos="486.40" arrivalSpeed="16.06" duration="90.10" routeLength="979.43" waitingTime="0.00" waitingCount="0" stopTime="0.00" timeLoss="36.81" rerouteNo="0" devices="tripinfo_L4-AV-3 emissions_L4-AV-3 ssm_L4-AV-3 toc_L4-AV-3 driverstateL4-AV-3" vType="L4-AV-79" speedFactor="1.12" vaporized="">
        <emissions CO_abs="3155.443405" CO2_abs="187759.970876" HC_abs="18.500877" PMx_abs="3.095085" NOx_abs="74.276625" fuel_abs="80.710612" electricity_abs="0"/>
    </tripinfo>
    <tripinfo id="L2-CV-6" depart="192.00" departLane="bottom-approaching_0" departPos="5.10" departSpeed="0.00" departDelay="0.00" arrival="250.90" arrivalLane="top-exit_0" arrivalPos="486.40" arrivalSpeed="18.64" duration="58.90" routeLength="994.90" waitingTime="0.00" waitingCount="0" stopTime="0.00" timeLoss="5.41" rerouteNo="0" devices="tripinfo_L2-CV-6 emissions_L2-CV-6 ssm_L2-CV-6 toc_L2-CV-6 driverstateL2-CV-6" vType="L2-CV-51" speedFactor="1.12" vaporized="">
        <emissions CO_abs="1283.170950" CO2_abs="211411.841876" HC_abs="8.267689" PMx_abs="2.661331" NOx_abs="71.917234" fuel_abs="90.877179" electricity_abs="0"/>
    </tripinfo>
    <tripinfo id="L4-CV-1" depart="123.00" departLane="top-approaching_0" departPos="5.10" departSpeed="0.00" departDelay="0.00" arrival="258.30" arrivalLane="left-exit_0" arrivalPos="820.00" arrivalSpeed="18.72" duration="135.30" routeLength="1379.53" waitingTime="41.90" waitingCount="1" stopTime="0.00" timeLoss="60.73" rerouteNo="0" devices="tripinfo_L4-CV-1 emissions_L4-CV-1 ssm_L4-CV-1 toc_L4-CV-1 driverstateL4-CV-1" vType="L4-CV-15@L4-CV-1" speedFactor="1.12" vaporized="">
        <emissions CO_abs="10233.107711" CO2_abs="441051.442977" HC_abs="53.673908" PMx_abs="7.451179" NOx_abs="169.346387" fuel_abs="189.592921" electricity_abs="0"/>
    </tripinfo>
    <tripinfo id="L0-HDV-2" depart="192.00" departLane="top-approaching_0" departPos="5.10" departSpeed="0.00" departDelay="0.00" arrival="260.30" arrivalLane="right-exit_0" arrivalPos="486.40" arrivalSpeed="17.24" duration="68.30" routeLength="992.21" waitingTime="0.00" waitingCount="0" stopTime="0.00" timeLoss="10.21" rerouteNo="0" devices="tripinfo_L0-HDV-2 emissions_L0-HDV-2 ssm_L0-HDV-2" vType="L0-HDV-32" speedFactor="1.04" vaporized="">
        <emissions CO_abs="3073.539099" CO2_abs="239488.777989" HC_abs="19.573054" PMx_abs="4.250605" NOx_abs="95.754679" fuel_abs="102.945648" electricity_abs="0"/>
    </tripinfo>
    <tripinfo id="L4-CV-24" depart="195.20" departLane="top-approaching_0" departPos="5.10" departSpeed="0.00" departDelay="3.20" arrival="270.00" arrivalLane="right-exit_0" arrivalPos="486.40" arrivalSpeed="15.01" duration="74.80" routeLength="992.21" waitingTime="0.00" waitingCount="0" stopTime="0.00" timeLoss="7.59" rerouteNo="0" devices="tripinfo_L4-CV-24 emissions_L4-CV-24 ssm_L4-CV-24 toc_L4-CV-24 driverstateL4-CV-24" vType="L4-CV-57" speedFactor="0.90" vaporized="">
        <emissions CO_abs="1660.304261" CO2_abs="221458.402090" HC_abs="10.545241" PMx_abs="2.350991" NOx_abs="76.413665" fuel_abs="95.196422" electricity_abs="0"/>
    </tripinfo>
    <tripinfo id="L4-CV-17" depart="171.00" departLane="left-long-approaching_0" departPos="5.10" departSpeed="0.00" departDelay="0.00" arrival="281.60" arrivalLane="bottom-exit_1" arrivalPos="486.40" arrivalSpeed="19.65" duration="110.60" routeLength="1379.53" waitingTime="17.80" waitingCount="1" stopTime="0.00" timeLoss="39.58" rerouteNo="0" devices="tripinfo_L4-CV-17 emissions_L4-CV-17 ssm_L4-CV-17 toc_L4-CV-17 driverstateL4-CV-17" vType="L4-CV-Right-21" speedFactor="1.18" vaporized="">
        <emissions CO_abs="4730.672848" CO2_abs="356970.983264" HC_abs="27.596401" PMx_abs="5.581711" NOx_abs="131.462686" fuel_abs="153.447587" electricity_abs="0"/>
    </tripinfo>
    <tripinfo id="L4-CV-7" depart="141.00" departLane="left-long-approaching_0" departPos="5.10" departSpeed="0.00" departDelay="0.00" arrival="285.10" arrivalLane="right-exit_0" arrivalPos="486.40" arrivalSpeed="16.97" duration="144.10" routeLength="1395.23" waitingTime="45.70" waitingCount="1" stopTime="0.00" timeLoss="61.85" rerouteNo="0" devices="tripinfo_L4-CV-7 emissions_L4-CV-7 ssm_L4-CV-7 toc_L4-CV-7 driverstateL4-CV-7" vType="L4-CV-59@L4-CV-7" speedFactor="1.02" vaporized="">
        <emissions CO_abs="10281.561140" CO2_abs="435129.116120" HC_abs="53.182056" PMx_abs="6.879448" NOx_abs="165.148218" fuel_abs="187.047773" electricity_abs="0"/>
    </tripinfo>
    <tripinfo id="L4-AV-0" depart="120.00" departLane="left-long-approaching_0" departPos="5.10" departSpeed="0.00" departDelay="0.00" arrival="287.80" arrivalLane="bottom-exit_0" arrivalPos="486.40" arrivalSpeed="13.99" duration="167.80" routeLength="1379.53" waitingTime="58.40" waitingCount="1" stopTime="0.00" timeLoss="68.04" rerouteNo="0" devices="tripinfo_L4-AV-0 emissions_L4-AV-0 ssm_L4-AV-0 toc_L4-AV-0 driverstateL4-AV-0" vType="L4-AV-Right-74" speedFactor="0.84" vaporized="">
        <emissions CO_abs="11638.762703" CO2_abs="446896.021107" HC_abs="60.626721" PMx_abs="6.650844" NOx_abs="169.942752" fuel_abs="192.107471" electricity_abs="0"/>
    </tripinfo>
    <tripinfo id="L4-CV-5" depart="135.00" departLane="top-approaching_0" departPos="5.10" departSpeed="0.00" departDelay="0.00" arrival="288.50" arrivalLane="left-exit_0" arrivalPos="820.00" arrivalSpeed="14.64" duration="153.50" routeLength="1379.53" waitingTime="23.00" waitingCount="23" stopTime="0.00" timeLoss="58.25" rerouteNo="0" devices="tripinfo_L4-CV-5 emissions_L4-CV-5 ssm_L4-CV-5 toc_L4-CV-5 driverstateL4-CV-5" vType="L4-CV-22@L4-CV-5" speedFactor="0.88" vaporized="">
        <emissions CO_abs="6377.288377" CO2_abs="368710.078303" HC_abs="34.791563" PMx_abs="4.729901" NOx_abs="134.429021" fuel_abs="158.496025" electricity_abs="0"/>
    </tripinfo>
    <tripinfo id="L2-AV-1" depart="156.00" departLane="left-long-approaching_0" departPos="5.10" departSpeed="0.00" departDelay="0.00" arrival="291.50" arrivalLane="right-exit_0" arrivalPos="486.40" arrivalSpeed="14.78" duration="135.50" routeLength="1395.23" waitingTime="0.00" waitingCount="0" stopTime="0.00" timeLoss="41.05" rerouteNo="0" devices="tripinfo_L2-AV-1 emissions_L2-AV-1 ssm_L2-AV-1 toc_L2-AV-1 driverstateL2-AV-1" vType="L2-AV-54" speedFactor="0.89" vaporized="">
        <emissions CO_abs="2757.352640" CO2_abs="301185.227318" HC_abs="16.205483" PMx_abs="3.186426" NOx_abs="104.048629" fuel_abs="129.468258" electricity_abs="0"/>
    </tripinfo>
    <tripinfo id="L4-CV-25" depart="196.30" departLane="left-long-approaching_0" departPos="5.10" departSpeed="0.00" departDelay="1.30" arrival="291.60" arrivalLane="right-exit_1" arrivalPos="486.40" arrivalSpeed="15.96" duration="95.30" routeLength="1395.23" waitingTime="0.00" waitingCount="0" stopTime="0.00" timeLoss="7.74" rerouteNo="0" devices="tripinfo_L4-CV-25 emissions_L4-CV-25 ssm_L4-CV-25 toc_L4-CV-25 driverstateL4-CV-25" vType="L4-CV-10@L4-CV-25" speedFactor="0.96" vaporized="">
        <emissions CO_abs="1372.362979" CO2_abs="274351.322560" HC_abs="8.761487" PMx_abs="2.624993" NOx_abs="90.492330" fuel_abs="117.932919" electricity_abs="0"/>
    </tripinfo>
    <tripinfo id="L2-CV-2" depart="147.80" departLane="bottom-approaching_0" departPos="5.10" departSpeed="0.00" departDelay="3.80" arrival="292.10" arrivalLane="left-exit_0" arrivalPos="820.00" arrivalSpeed="17.19" duration="144.30" routeLength="1392.31" waitingTime="37.10" waitingCount="7" stopTime="0.00" timeLoss="62.39" rerouteNo="0" devices="tripinfo_L2-CV-2 emissions_L2-CV-2 ssm_L2-CV-2 toc_L2-CV-2 driverstateL2-CV-2" vType="L2-CV-70@L2-CV-2" speedFactor="1.03" vaporized="">
        <emissions CO_abs="10211.601530" CO2_abs="437020.221234" HC_abs="52.757316" PMx_abs="7.017299" NOx_abs="166.679330" fuel_abs="187.860394" electricity_abs="0"/>
    </tripinfo>
    <tripinfo id="L4-AV-8" depart="216.00" departLane="right-approaching_0" departPos="5.10" departSpeed="0.00" departDelay="0.00" arrival="293.10" arrivalLane="top-exit_0" arrivalPos="486.40" arrivalSpeed="14.90" duration="77.10" routeLength="979.43" waitingTime="0.00" waitingCount="0" stopTime="0.00" timeLoss="10.27" rerouteNo="0" devices="tripinfo_L4-AV-8 emissions_L4-AV-8 ssm_L4-AV-8 toc_L4-AV-8 driverstateL4-AV-8" vType="L4-AV-15" speedFactor="0.89" vaporized="">
        <emissions CO_abs="2112.806772" CO2_abs="227570.986498" HC_abs="12.587796" PMx_abs="2.548459" NOx_abs="79.863555" fuel_abs="97.824062" electricity_abs="0"/>
    </tripinfo>
    <tripinfo id="L4-CV-27" depart="201.00" departLane="left-long-approaching_0" departPos="5.10" departSpeed="0.00" departDelay="0.00" arrival="293.30" arrivalLane="right-exit_0" arrivalPos="486.40" arrivalSpeed="17.30" duration="92.30" routeLength="1395.23" waitingTime="0.00" waitingCount="0" stopTime="0.00" timeLoss="11.51" rerouteNo="0" devices="tripinfo_L4-CV-27 emissions_L4-CV-27 ssm_L4-CV-27 toc_L4-CV-27 driverstateL4-CV-27" vType="L4-CV-28" speedFactor="1.04" vaporized="">
        <emissions CO_abs="1628.559666" CO2_abs="192376.301911" HC_abs="10.731924" PMx_abs="2.652130" NOx_abs="70.042065" fuel_abs="82.694521" electricity_abs="0"/>
    </tripinfo>
    <tripinfo id="L4-CV-19" depart="177.00" departLane="right-approaching_0" departPos="5.10" departSpeed="0.00" departDelay="0.00" arrival="296.20" arrivalLane="bottom-exit_0" arrivalPos="486.40" arrivalSpeed="16.58" duration="119.20" routeLength="992.21" waitingTime="43.00" waitingCount="2" stopTime="0.00" timeLoss="58.40" rerouteNo="0" devices="tripinfo_L4-CV-19 emissions_L4-CV-19 ssm_L4-CV-19 toc_L4-CV-19 driverstateL4-CV-19" vType="L4-CV-41" speedFactor="0.99" vaporized="">
        <emissions CO_abs="9569.916056" CO2_abs="356077.581018" HC_abs="49.666190" PMx_abs="6.119483" NOx_abs="139.975278" fuel_abs="153.066335" electricity_abs="0"/>
    </tripinfo>
    <tripinfo id="L2-AV-2" depart="192.00" departLane="right-approaching_0" departPos="5.10" departSpeed="0.00" departDelay="0.00" arrival="299.90" arrivalLane="bottom-exit_0" arrivalPos="486.40" arrivalSpeed="16.12" duration="107.90" routeLength="992.21" waitingTime="0.00" waitingCount="0" stopTime="0.00" timeLoss="45.34" rerouteNo="0" devices="tripinfo_L2-AV-2 emissions_L2-AV-2 ssm_L2-AV-2 toc_L2-AV-2 driverstateL2-AV-2" vType="L2-AV-99" speedFactor="0.97" vaporized="">
        <emissions CO_abs="2973.429158" CO2_abs="243715.924578" HC_abs="16.769760" PMx_abs="3.290297" NOx_abs="89.007013" fuel_abs="104.763912" electricity_abs="0"/>
    </tripinfo>
    <tripinfo id="L4-CV-33" depart="219.90" departLane="right-approaching_0" departPos="5.10" departSpeed="0.00" departDelay="0.90" arrival="300.80" arrivalLane="top-exit_0" arrivalPos="486.40" arrivalSpeed="14.62" duration="80.90" routeLength="979.43" waitingTime="0.10" waitingCount="1" stopTime="0.00" timeLoss="12.75" rerouteNo="0" devices="tripinfo_L4-CV-33 emissions_L4-CV-33 ssm_L4-CV-33 toc_L4-CV-33 driverstateL4-CV-33" vType="L4-CV-84" speedFactor="0.88" vaporized="">
        <emissions CO_abs="2259.557839" CO2_abs="232089.609395" HC_abs="14.004884" PMx_abs="2.565496" NOx_abs="81.725183" fuel_abs="99.766668" electricity_abs="0"/>
    </tripinfo>
    <tripinfo id="L4-AV-6" depart="192.00" departLane="left-long-approaching_0" departPos="5.10" departSpeed="0.00" departDelay="0.00" arrival="303.40" arrivalLane="top-exit_0" arrivalPos="486.40" arrivalSpeed="16.14" duration="111.40" routeLength="1392.31" waitingTime="2.80" waitingCount="2" stopTime="0.00" timeLoss="24.12" rerouteNo="0" devices="tripinfo_L4-AV-6 emissions_L4-AV-6 ssm_L4-AV-6 toc_L4-AV-6 driverstateL4-AV-6" vType="L4-AV-Left-38" speedFactor="0.97" vaporized="">
        <emissions CO_abs="3732.442263" CO2_abs="317901.968982" HC_abs="20.895723" PMx_abs="3.888210" NOx_abs="112.759366" fuel_abs="136.654102" electricity_abs="0"/>
    </tripinfo>
    <tripinfo id="L2-CV-9" depart="228.50" departLane="left-long-approaching_0" departPos="5.10" departSpeed="0.00" departDelay="0.50" arrival="319.00" arrivalLane="top-exit_0" arrivalPos="486.40" arrivalSpeed="17.81" duration="90.50" routeLength="1397.47" waitingTime="0.10" waitingCount="1" stopTime="0.00" timeLoss="11.13" rerouteNo="0" devices="tripinfo_L2-CV-9 emissions_L2-CV-9 ssm_L2-CV-9 toc_L2-CV-9 driverstateL2-CV-9" vType="L2-CV-Left-35@L2-CV-9" speedFactor="1.07" vaporized="">
        <emissions CO_abs="1995.593369" CO2_abs="297429.030326" HC_abs="12.716303" PMx_abs="3.549856" NOx_abs="101.736592" fuel_abs="127.852724" electricity_abs="0"/>
    </tripinfo>
    <tripinfo id="L4-CV-11" depart="153.00" departLane="top-approaching_0" departPos="5.10" departSpeed="0.00" departDelay="0.00" arrival="325.90" arrivalLane="left-exit_0" arrivalPos="820.00" arrivalSpeed="14.55" duration="172.90" routeLength="1379.53" waitingTime="24.40" waitingCount="44" stopTime="0.00" timeLoss="77.00" rerouteNo="0" devices="tripinfo_L4-CV-11 emissions_L4-CV-11 ssm_L4-CV-11 toc_L4-CV-11 driverstateL4-CV-11" vType="L4-CV-6@L4-CV-11" speedFactor="0.87" vaporized="">
        <emissions CO_abs="9053.398579" CO2_abs="413150.510415" HC_abs="47.953879" PMx_abs="5.765250" NOx_abs="154.516681" fuel_abs="177.600348" electricity_abs="0"/>
    </tripinfo>
    <tripinfo id="L4-AV-2" depart="144.00" departLane="right-approaching_0" departPos="5.10" departSpeed="0.00" departDelay="0.00" arrival="332.30" arrivalLane="left-exit_0" arrivalPos="820.00" arrivalSpeed="15.11" duration="188.30" routeLength="1395.12" waitingTime="72.00" waitingCount="5" stopTime="0.00" timeLoss="95.88" rerouteNo="0" devices="tripinfo_L4-AV-2 emissions_L4-AV-2 ssm_L4-AV-2 toc_L4-AV-2 driverstateL4-AV-2" vType="L4-AV-3@L4-AV-2" speedFactor="0.91" vaporized="">
        <emissions CO_abs="15367.317503" CO2_abs="515197.188955" HC_abs="78.788110" PMx_abs="8.746294" NOx_abs="203.545892" fuel_abs="221.468065" electricity_abs="0"/>
    </tripinfo>
    <tripinfo id="L2-CV-4" depart="168.00" departLane="right-approaching_0" departPos="5.10" departSpeed="0.00" departDelay="0.00" arrival="334.30" arrivalLane="left-exit_0" arrivalPos="820.00" arrivalSpeed="17.21" duration="166.30" routeLength="1395.12" waitingTime="54.70" waitingCount="4" stopTime="0.00" timeLoss="85.28" rerouteNo="0" devices="tripinfo_L2-CV-4 emissions_L2-CV-4 ssm_L2-CV-4 toc_L2-CV-4 driverstateL2-CV-4" vType="L2-CV-38@L2-CV-4" speedFactor="1.03" vaporized="">
        <emissions CO_abs="10287.416690" CO2_abs="442676.408244" HC_abs="53.038212" PMx_abs="7.213271" NOx_abs="169.423765" fuel_abs="190.291568" electricity_abs="0"/>
    </tripinfo>
    <tripinfo id="L4-CV-41" depart="243.60" departLane="top-approaching_0" departPos="5.10" departSpeed="0.00" departDelay="0.60" arrival="339.70" arrivalLane="bottom-exit_0" arrivalPos="486.40" arrivalSpeed="18.66" duration="96.10" routeLength="994.90" waitingTime="29.40" waitingCount="1" stopTime="0.00" timeLoss="42.66" rerouteNo="0" devices="tripinfo_L4-CV-41 emissions_L4-CV-41 ssm_L4-CV-41 toc_L4-CV-41 driverstateL4-CV-41" vType="L4-CV-85" speedFactor="1.12" vaporized="">
        <emissions CO_abs="7546.978349" CO2_abs="334387.578064" HC_abs="39.928924" PMx_abs="5.845714" NOx_abs="130.221843" fuel_abs="143.741267" electricity_abs="0"/>
    </tripinfo>
    <tripinfo id="L4-CV-30" depart="210.00" departLane="bottom-approaching_0" departPos="5.10" departSpeed="0.00" departDelay="0.00" arrival="345.20" arrivalLane="right-exit_0" arrivalPos="486.40" arrivalSpeed="15.01" duration="135.20" routeLength="979.43" waitingTime="57.80" waitingCount="1" stopTime="0.00" timeLoss="68.84" rerouteNo="0" devices="tripinfo_L4-CV-30 emissions_L4-CV-30 ssm_L4-CV-30 toc_L4-CV-30 driverstateL4-CV-30" vType="L4-CV-4" speedFactor="0.90" vaporized="">
        <emissions CO_abs="11768.068905" CO2_abs="385970.338341" HC_abs="60.287074" PMx_abs="6.568672" NOx_abs="152.618162" fuel_abs="165.917467" electricity_abs="0"/>
    </tripinfo>
    <tripinfo id="L4-CV-36" depart="228.00" departLane="bottom-approaching_0" departPos="5.10" departSpeed="0.00" departDelay="0.00" arrival="345.80" arrivalLane="right-exit_1" arrivalPos="486.40" arrivalSpeed="16.72" duration="117.80" routeLength="979.43" waitingTime="36.30" waitingCount="22" stopTime="0.00" timeLoss="58.36" rerouteNo="0" devices="tripinfo_L4-CV-36 emissions_L4-CV-36 ssm_L4-CV-36 toc_L4-CV-36 driverstateL4-CV-36" vType="L4-CV-64" speedFactor="1.00" vaporized="">
        <emissions CO_abs="7368.191312" CO2_abs="322895.947596" HC_abs="39.112971" PMx_abs="5.206641" NOx_abs="124.466097" fuel_abs="138.802056" electricity_abs="0"/>
    </tripinfo>
    <tripinfo id="L4-AV-10" depart="243.50" departLane="top-approaching_0" departPos="5.10" departSpeed="0.00" departDelay="3.50" arrival="347.00" arrivalLane="bottom-exit_0" arrivalPos="486.40" arrivalSpeed="17.75" duration="103.50" routeLength="994.90" waitingTime="0.10" waitingCount="1" stopTime="0.00" timeLoss="47.32" rerouteNo="0" devices="tripinfo_L4-AV-10 emissions_L4-AV-10 ssm_L4-AV-10 toc_L4-AV-10 driverstateL4-AV-10" vType="L4-AV-73" speedFactor="1.06" vaporized="">
        <emissions CO_abs="3477.459883" CO2_abs="255717.822586" HC_abs="20.066709" PMx_abs="3.782984" NOx_abs="95.755499" fuel_abs="109.922984" electricity_abs="0"/>
    </tripinfo>
    <tripinfo id="L2-AV-3" depart="231.50" departLane="bottom-approaching_0" departPos="5.10" departSpeed="0.00" departDelay="3.50" arrival="347.10" arrivalLane="top-exit_0" arrivalPos="486.40" arrivalSpeed="17.33" duration="115.60" routeLength="994.90" waitingTime="35.10" waitingCount="2" stopTime="0.00" timeLoss="58.07" rerouteNo="0" devices="tripinfo_L2-AV-3 emissions_L2-AV-3 ssm_L2-AV-3 toc_L2-AV-3 driverstateL2-AV-3" vType="L2-AV-92" speedFactor="1.04" vaporized="">
        <emissions CO_abs="9274.041999" CO2_abs="358906.322161" HC_abs="48.448262" PMx_abs="6.055558" NOx_abs="140.543852" fuel_abs="154.282175" electricity_abs="0"/>
    </tripinfo>
    <tripinfo id="L4-CV-50" depart="270.00" departLane="bottom-approaching_0" departPos="5.10" departSpeed="0.00" departDelay="0.00" arrival="348.80" arrivalLane="top-exit_0" arrivalPos="486.40" arrivalSpeed="17.21" duration="78.80" routeLength="994.90" waitingTime="0.10" waitingCount="1" stopTime="0.00" timeLoss="20.89" rerouteNo="0" devices="tripinfo_L4-CV-50 emissions_L4-CV-50 ssm_L4-CV-50 toc_L4-CV-50 driverstateL4-CV-50" vType="L4-CV-94" speedFactor="1.03" vaporized="">
        <emissions CO_abs="3139.995168" CO2_abs="263077.041337" HC_abs="18.408851" PMx_abs="3.611143" NOx_abs="96.210160" fuel_abs="113.086484" electricity_abs="0"/>
    </tripinfo>