<additional xmlns:xsi="http://www.w3.org/2001/XMLSchema-instance" xsi:noNamespaceSchemaLocation="http://sumo.dlr.de/xsd/additional_file.xsd">
    
    
    
    
    
    
    
    
    
    
    
    
    
    
    
    
    
    
    
    
    
    
    
    
    
    
    
    
    
    
    
    
    
    
    
    
    
    
    
    
    
    
    
    
    
    
    
    
    
    
    
    
    
    
    
    
    <vTypeDistribution id="L0-HDV-Straight">
        <vType id="L0-HDV-Straight0" vClass="custom1" carFollowModel="Krauss" color="blue" sigma="0.323" tau="1.227" decel="3.362" accel="1.024" emergencyDecel="9.000" lcAssertive="1.228" actionStepLength="0.100" speedFactor="0.866">
            <param key="has.toc.device" value="false"/>
            <param key="has.ssm.device" value="true"/>
            <param key="device.ssm.measures" value="TTC"/>
            <param key="device.ssm.thresholds" value="3.000"/>
            <param key="device.ssm.range" value="50.000"/>
            <param key="device.ssm.extratime" value="5.000"/>
            <param key="device.ssm.file" value="Output-Files\SSM-HDV.xml"/>
            <param key="device.ssm.trajectories" value="false"/>
            <param key="device.ssm.geo" value="false"/>
        </vType>
        <vType id="L0-HDV-Straight1" vClass="custom1" carFollowModel="Krauss" color="blue" sigma="0.038" tau="1.191" decel="3.035" accel="3.481" emergencyDecel="9.000" lcAssertive="1.273" actionStepLength="0.100" speedFactor="1.174">
            <param key="has.toc.device" value="false"/>
            <param key="has.ssm.device" value="true"/>
            <param key="device.ssm.measures" value="TTC"/>
            <param key="device.ssm.thresholds" value="3.000"/>
            <param key="device.ssm.range" value="50.000"/>
            <param key="device.ssm.extratime" value="5.000"/>
            <param key="device.ssm.file" value="Output-Files\SSM-HDV.xml"/>
            <param key="device.ssm.trajectories" value="false"/>
            <param key="device.ssm.geo" value="false"/>
        </vType>
        <vType id="L0-HDV-Straight2" vClass="custom1" carFollowModel="Krauss" color="blue" sigma="0.383" tau="0.925" decel="2.569" accel="2.310" emergencyDecel="9.000" lcAssertive="1.178" actionStepLength="0.100" speedFactor="1.188">
            <param key="has.toc.device" value="false"/>
            <param key="has.ssm.device" value="true"/>
            <param key="device.ssm.measures" value="TTC"/>
            <param key="device.ssm.thresholds" value="3.000"/>
            <param key="device.ssm.range" value="50.000"/>
            <param key="device.ssm.extratime" value="5.000"/>
            <param key="device.ssm.file" value="Output-Files\SSM-HDV.xml"/>
            <param key="device.ssm.trajectories" value="false"/>
            <param key="device.ssm.geo" value="false"/>
        </vType>
        <vType id="L0-HDV-Straight3" vClass="custom1" carFollowModel="Krauss" color="blue" sigma="0.857" tau="0.671" decel="3.279" accel="2.867" emergencyDecel="9.000" lcAssertive="1.139" actionStepLength="0.100" speedFactor="0.877">
            <param key="has.toc.device" value="false"/>
            <param key="has.ssm.device" value="true"/>
            <param key="device.ssm.measures" value="TTC"/>
            <param key="device.ssm.thresholds" value="3.000"/>
            <param key="device.ssm.range" value="50.000"/>
            <param key="device.ssm.extratime" value="5.000"/>
            <param key="device.ssm.file" value="Output-Files\SSM-HDV.xml"/>
            <param key="device.ssm.trajectories" value="false"/>
            <param key="device.ssm.geo" value="false"/>
        </vType>
        <vType id="L0-HDV-Straight4" vClass="custom1" carFollowModel="Krauss" color="blue" sigma="0.638" tau="0.601" decel="2.542" accel="2.221" emergencyDecel="9.000" lcAssertive="1.249" actionStepLength="0.100" speedFactor="1.030">
            <param key="has.toc.device" value="false"/>
            <param key="has.ssm.device" value="true"/>
            <param key="device.ssm.measures" value="TTC"/>
            <param key="device.ssm.thresholds" value="3.000"/>
            <param key="device.ssm.range" value="50.000"/>
            <param key="device.ssm.extratime" value="5.000"/>
            <param key="device.ssm.file" value="Output-Files\SSM-HDV.xml"/>
            <param key="device.ssm.trajectories" value="false"/>
            <param key="device.ssm.geo" value="false"/>
        </vType>
        <vType id="L0-HDV-Straight5" vClass="custom1" carFollowModel="Krauss" color="blue" sigma="0.462" tau="0.553" decel="3.333" accel="2.250" emergencyDecel="9.000" lcAssertive="1.163" actionStepLength="0.100" speedFactor="1.056">
            <param key="has.toc.device" value="false"/>
            <param key="has.ssm.device" value="true"/>
            <param key="device.ssm.measures" value="TTC"/>
            <param key="device.ssm.thresholds" value="3.000"/>
            <param key="device.ssm.range" value="50.000"/>
            <param key="device.ssm.extratime" value="5.000"/>
            <param key="device.ssm.file" value="Output-Files\SSM-HDV.xml"/>
            <param key="device.ssm.trajectories" value="false"/>
            <param key="device.ssm.geo" value="false"/>
        </vType>
        <vType id="L0-HDV-Straight6" vClass="custom1" carFollowModel="Krauss" color="blue" sigma="0.091" tau="0.926" decel="2.285" accel="1.754" emergencyDecel="9.000" lcAssertive="1.260" actionStepLength="0.100" speedFactor="1.049">
            <param key="has.toc.device" value="false"/>
            <param key="has.ssm.device" value="true"/>
            <param key="device.ssm.measures" value="TTC"/>
            <param key="device.ssm.thresholds" value="3.000"/>
            <param key="device.ssm.range" value="50.000"/>
            <param key="device.ssm.extratime" value="5.000"/>
            <param key="device.ssm.file" value="Output-Files\SSM-HDV.xml"/>
            <param key="device.ssm.trajectories" value="false"/>
            <param key="device.ssm.geo" value="false"/>
        </vType>
        <vType id="L0-HDV-Straight7" vClass="custom1" carFollowModel="Krauss" color="blue" sigma="0.613" tau="0.507" decel="2.796" accel="2.091" emergencyDecel="9.000" lcAssertive="1.236" actionStepLength="0.100" speedFactor="1.094">
            <param key="has.toc.device" value="false"/>
            <param key="has.ssm.device" value="true"/>
            <param key="device.ssm.measures" value="TTC"/>
            <param key="device.ssm.thresholds" value="3.000"/>
            <param key="device.ssm.range" value="50.000"/>
            <param key="device.ssm.extratime" value="5.000"/>
            <param key="device.ssm.file" value="Output-Files\SSM-HDV.xml"/>
            <param key="device.ssm.trajectories" value="false"/>
            <param key="device.ssm.geo" value="false"/>
        </vType>
        <vType id="L0-HDV-Straight8" vClass="custom1" carFollowModel="Krauss" color="blue" sigma="0.110" tau="0.533" decel="3.840" accel="1.158" emergencyDecel="9.000" lcAssertive="1.214" actionStepLength="0.100" speedFactor="1.107">
            <param key="has.toc.device" value="false"/>
            <param key="has.ssm.device" value="true"/>
            <param key="device.ssm.measures" value="TTC"/>
            <param key="device.ssm.thresholds" value="3.000"/>
            <param key="device.ssm.range" value="50.000"/>
            <param key="device.ssm.extratime" value="5.000"/>
            <param key="device.ssm.file" value="Output-Files\SSM-HDV.xml"/>
            <param key="device.ssm.trajectories" value="false"/>
            <param key="device.ssm.geo" value="false"/>
        </vType>
        <vType id="L0-HDV-Straight9" vClass="custom1" carFollowModel="Krauss" color="blue" sigma="0.451" tau="1.044" decel="3.926" accel="1.667" emergencyDecel="9.000" lcAssertive="1.230" actionStepLength="0.100" speedFactor="0.952">
            <param key="has.toc.device" value="false"/>
            <param key="has.ssm.device" value="true"/>
            <param key="device.ssm.measures" value="TTC"/>
            <param key="device.ssm.thresholds" value="3.000"/>
            <param key="device.ssm.range" value="50.000"/>
            <param key="device.ssm.extratime" value="5.000"/>
            <param key="device.ssm.file" value="Output-Files\SSM-HDV.xml"/>
            <param key="device.ssm.trajectories" value="false"/>
            <param key="device.ssm.geo" value="false"/>
        </vType>
        <vType id="L0-HDV-Straight10" vClass="custom1" carFollowModel="Krauss" color="blue" sigma="0.410" tau="1.566" decel="4.276" accel="1.012" emergencyDecel="9.000" lcAssertive="1.223" actionStepLength="0.100" speedFactor="1.163">
            <param key="has.toc.device" value="false"/>
            <param key="has.ssm.device" value="true"/>
            <param key="device.ssm.measures" value="TTC"/>
            <param key="device.ssm.thresholds" value="3.000"/>
            <param key="device.ssm.range" value="50.000"/>
            <param key="device.ssm.extratime" value="5.000"/>
            <param key="device.ssm.file" value="Output-Files\SSM-HDV.xml"/>
            <param key="device.ssm.trajectories" value="false"/>
            <param key="device.ssm.geo" value="false"/>
        </vType>
        <vType id="L0-HDV-Straight11" vClass="custom1" carFollowModel="Krauss" color="blue" sigma="0.096" tau="0.509" decel="3.819" accel="2.923" emergencyDecel="9.000" lcAssertive="1.194" actionStepLength="0.100" speedFactor="0.962">
            <param key="has.toc.device" value="false"/>
            <param key="has.ssm.device" value="true"/>
            <param key="device.ssm.measures" value="TTC"/>
            <param key="device.ssm.thresholds" value="3.000"/>
            <param key="device.ssm.range" value="50.000"/>
            <param key="device.ssm.extratime" value="5.000"/>
            <param key="device.ssm.file" value="Output-Files\SSM-HDV.xml"/>
            <param key="device.ssm.trajectories" value="false"/>
            <param key="device.ssm.geo" value="false"/>
        </vType>
        <vType id="L0-HDV-Straight12" vClass="custom1" carFollowModel="Krauss" color="blue" sigma="0.633" tau="0.964" decel="4.053" accel="1.902" emergencyDecel="9.000" lcAssertive="1.233" actionStepLength="0.100" speedFactor="1.181">
            <param key="has.toc.device" value="false"/>
            <param key="has.ssm.device" value="true"/>
            <param key="device.ssm.measures" value="TTC"/>
            <param key="device.ssm.thresholds" value="3.000"/>
            <param key="device.ssm.range" value="50.000"/>
            <param key="device.ssm.extratime" value="5.000"/>
            <param key="device.ssm.file" value="Output-Files\SSM-HDV.xml"/>
            <param key="device.ssm.trajectories" value="false"/>
            <param key="device.ssm.geo" value="false"/>
        </vType>
        <vType id="L0-HDV-Straight13" vClass="custom1" carFollowModel="Krauss" color="blue" sigma="0.740" tau="0.886" decel="3.873" accel="1.535" emergencyDecel="9.000" lcAssertive="1.128" actionStepLength="0.100" speedFactor="1.147">
            <param key="has.toc.device" value="false"/>
            <param key="has.ssm.device" value="true"/>
            <param key="device.ssm.measures" value="TTC"/>
            <param key="device.ssm.thresholds" value="3.000"/>
            <param key="device.ssm.range" value="50.000"/>
            <param key="device.ssm.extratime" value="5.000"/>
            <param key="device.ssm.file" value="Output-Files\SSM-HDV.xml"/>
            <param key="device.ssm.trajectories" value="false"/>
            <param key="device.ssm.geo" value="false"/>
        </vType>
        <vType id="L0-HDV-Straight14" vClass="custom1" carFollowModel="Krauss" color="blue" sigma="0.830" tau="0.810" decel="4.039" accel="1.447" emergencyDecel="9.000" lcAssertive="1.188" actionStepLength="0.100" speedFactor="0.879">
            <param key="has.toc.device" value="false"/>
            <param key="has.ssm.device" value="true"/>
            <param key="device.ssm.measures" value="TTC"/>
            <param key="device.ssm.thresholds" value="3.000"/>
            <param key="device.ssm.range" value="50.000"/>
            <param key="device.ssm.extratime" value="5.000"/>
            <param key="device.ssm.file" value="Output-Files\SSM-HDV.xml"/>
            <param key="device.ssm.trajectories" value="false"/>
            <param key="device.ssm.geo" value="false"/>
        </vType>
        <vType id="L0-HDV-Straight15" vClass="custom1" carFollowModel="Krauss" color="blue" sigma="0.057" tau="0.848" decel="3.374" accel="1.535" emergencyDecel="9.000" lcAssertive="1.231" actionStepLength="0.100" speedFactor="0.806">
            <param key="has.toc.device" value="false"/>
            <param key="has.ssm.device" value="true"/>
            <param key="device.ssm.measures" value="TTC"/>
            <param key="device.ssm.thresholds" value="3.000"/>
            <param key="device.ssm.range" value="50.000"/>
            <param key="device.ssm.extratime" value="5.000"/>
            <param key="device.ssm.file" value="Output-Files\SSM-HDV.xml"/>
            <param key="device.ssm.trajectories" value="false"/>
            <param key="device.ssm.geo" value="false"/>
        </vType>
        <vType id="L0-HDV-Straight16" vClass="custom1" carFollowModel="Krauss" color="blue" sigma="0.372" tau="0.791" decel="2.666" accel="1.604" emergencyDecel="9.000" lcAssertive="1.114" actionStepLength="0.100" speedFactor="1.097">
            <param key="has.toc.device" value="false"/>
            <param key="has.ssm.device" value="true"/>
            <param key="device.ssm.measures" value="TTC"/>
            <param key="device.ssm.thresholds" value="3.000"/>
            <param key="device.ssm.range" value="50.000"/>
            <param key="device.ssm.extratime" value="5.000"/>
            <param key="device.ssm.file" value="Output-Files\SSM-HDV.xml"/>
            <param key="device.ssm.trajectories" value="false"/>
            <param key="device.ssm.geo" value="false"/>
        </vType>
        <vType id="L0-HDV-Straight17" vClass="custom1" carFollowModel="Krauss" color="blue" sigma="0.216" tau="1.467" decel="4.260" accel="3.254" emergencyDecel="9.000" lcAssertive="1.197" actionStepLength="0.100" speedFactor="0.861">
            <param key="has.toc.device" value="false"/>
            <param key="has.ssm.device" value="true"/>
            <param key="device.ssm.measures" value="TTC"/>
            <param key="device.ssm.thresholds" value="3.000"/>
            <param key="device.ssm.range" value="50.000"/>
            <param key="device.ssm.extratime" value="5.000"/>
            <param key="device.ssm.file" value="Output-Files\SSM-HDV.xml"/>
            <param key="device.ssm.trajectories" value="false"/>
            <param key="device.ssm.geo" value="false"/>
        </vType>
        <vType id="L0-HDV-Straight18" vClass="custom1" carFollowModel="Krauss" color="blue" sigma="0.676" tau="0.750" decel="2.485" accel="1.424" emergencyDecel="9.000" lcAssertive="1.204" actionStepLength="0.100" speedFactor="1.176">
            <param key="has.toc.device" value="false"/>
            <param key="has.ssm.device" value="true"/>
            <param key="device.ssm.measures" value="TTC"/>
            <param key="device.ssm.thresholds" value="3.000"/>
            <param key="device.ssm.range" value="50.000"/>
            <param key="device.ssm.extratime" value="5.000"/>
            <param key="device.ssm.file" value="Output-Files\SSM-HDV.xml"/>
            <param key="device.ssm.trajectories" value="false"/>
            <param key="device.ssm.geo" value="false"/>
        </vType>
        <vType id="L0-HDV-Straight19" vClass="custom1" carFollowModel="Krauss" color="blue" sigma="0.027" tau="0.509" decel="2.060" accel="2.474" emergencyDecel="9.000" lcAssertive="1.148" actionStepLength="0.100" speedFactor="0.990">
            <param key="has.toc.device" value="false"/>
            <param key="has.ssm.device" value="true"/>
            <param key="device.ssm.measures" value="TTC"/>
            <param key="device.ssm.thresholds" value="3.000"/>
            <param key="device.ssm.range" value="50.000"/>
            <param key="device.ssm.extratime" value="5.000"/>
            <param key="device.ssm.file" value="Output-Files\SSM-HDV.xml"/>
            <param key="device.ssm.trajectories" value="false"/>
            <param key="device.ssm.geo" value="false"/>
        </vType>
        <vType id="L0-HDV-Straight20" vClass="custom1" carFollowModel="Krauss" color="blue" sigma="0.300" tau="0.543" decel="2.624" accel="1.803" emergencyDecel="9.000" lcAssertive="1.197" actionStepLength="0.100" speedFactor="1.143">
            <param key="has.toc.device" value="false"/>
            <param key="has.ssm.device" value="true"/>
            <param key="device.ssm.measures" value="TTC"/>
            <param key="device.ssm.thresholds" value="3.000"/>
            <param key="device.ssm.range" value="50.000"/>
            <param key="device.ssm.extratime" value="5.000"/>
            <param key="device.ssm.file" value="Output-Files\SSM-HDV.xml"/>
            <param key="device.ssm.trajectories" value="false"/>
            <param key="device.ssm.geo" value="false"/>
        </vType>
        <vType id="L0-HDV-Straight21" vClass="custom1" carFollowModel="Krauss" color="blue" sigma="0.561" tau="1.189" decel="3.640" accel="3.468" emergencyDecel="9.000" lcAssertive="1.127" actionStepLength="0.100" speedFactor="1.196">
            <param key="has.toc.device" value="false"/>
            <param key="has.ssm.device" value="true"/>
            <param key="device.ssm.measures" value="TTC"/>
            <param key="device.ssm.thresholds" value="3.000"/>
            <param key="device.ssm.range" value="50.000"/>
            <param key="device.ssm.extratime" value="5.000"/>
            <param key="device.ssm.file" value="Output-Files\SSM-HDV.xml"/>
            <param key="device.ssm.trajectories" value="false"/>
            <param key="device.ssm.geo" value="false"/>
        </vType>
        <vType id="L0-HDV-Straight22" vClass="custom1" carFollowModel="Krauss" color="blue" sigma="0.851" tau="0.800" decel="4.377" accel="2.743" emergencyDecel="9.000" lcAssertive="1.190" actionStepLength="0.100" speedFactor="1.103">
            <param key="has.toc.device" value="false"/>
            <param key="has.ssm.device" value="true"/>
            <param key="device.ssm.measures" value="TTC"/>
            <param key="device.ssm.thresholds" value="3.000"/>
            <param key="device.ssm.range" value="50.000"/>
            <param key="device.ssm.extratime" value="5.000"/>
            <param key="device.ssm.file" value="Output-Files\SSM-HDV.xml"/>
            <param key="device.ssm.trajectories" value="false"/>
            <param key="device.ssm.geo" value="false"/>
        </vType>
        <vType id="L0-HDV-Straight23" vClass="custom1" carFollowModel="Krauss" color="blue" sigma="0.879" tau="0.915" decel="3.627" accel="1.589" emergencyDecel="9.000" lcAssertive="1.243" actionStepLength="0.100" speedFactor="1.069">
            <param key="has.toc.device" value="false"/>
            <param key="has.ssm.device" value="true"/>
            <param key="device.ssm.measures" value="TTC"/>
            <param key="device.ssm.thresholds" value="3.000"/>
            <param key="device.ssm.range" value="50.000"/>
            <param key="device.ssm.extratime" value="5.000"/>
            <param key="device.ssm.file" value="Output-Files\SSM-HDV.xml"/>
            <param key="device.ssm.trajectories" value="false"/>
            <param key="device.ssm.geo" value="false"/>
        </vType>
        <vType id="L0-HDV-Straight24" vClass="custom1" carFollowModel="Krauss" color="blue" sigma="0.093" tau="0.968" decel="3.977" accel="1.919" emergencyDecel="9.000" lcAssertive="1.246" actionStepLength="0.100" speedFactor="1.085">
            <param key="has.toc.device" value="false"/>
            <param key="has.ssm.device" value="true"/>
            <param key="device.ssm.measures" value="TTC"/>
            <param key="device.ssm.thresholds" value="3.000"/>
            <param key="device.ssm.range" value="50.000"/>
            <param key="device.ssm.extratime" value="5.000"/>
            <param key="device.ssm.file" value="Output-Files\SSM-HDV.xml"/>
            <param key="device.ssm.trajectories" value="false"/>
            <param key="device.ssm.geo" value="false"/>
        </vType>
        <vType id="L0-HDV-Straight25" vClass="custom1" carFollowModel="Krauss" color="blue" sigma="0.437" tau="0.733" decel="3.592" accel="2.630" emergencyDecel="9.000" lcAssertive="1.224" actionStepLength="0.100" speedFactor="1.003">
            <param key="has.toc.device" value="false"/>
            <param key="has.ssm.device" value="true"/>
            <param key="device.ssm.measures" value="TTC"/>
            <param key="device.ssm.thresholds" value="3.000"/>
            <param key="device.ssm.range" value="50.000"/>
            <param key="device.ssm.extratime" value="5.000"/>
            <param key="device.ssm.file" value="Output-Files\SSM-HDV.xml"/>
            <param key="device.ssm.trajectories" value="false"/>
            <param key="device.ssm.geo" value="false"/>
        </vType>
        <vType id="L0-HDV-Straight26" vClass="custom1" carFollowModel="Krauss" color="blue" sigma="0.329" tau="0.551" decel="3.086" accel="1.321" emergencyDecel="9.000" lcAssertive="1.204" actionStepLength="0.100" speedFactor="1.178">
            <param key="has.toc.device" value="false"/>
            <param key="has.ssm.device" value="true"/>
            <param key="device.ssm.measures" value="TTC"/>
            <param key="device.ssm.thresholds" value="3.000"/>
            <param key="device.ssm.range" value="50.000"/>
            <param key="device.ssm.extratime" value="5.000"/>
            <param key="device.ssm.file" value="Output-Files\SSM-HDV.xml"/>
            <param key="device.ssm.trajectories" value="false"/>
            <param key="device.ssm.geo" value="false"/>
        </vType>
        <vType id="L0-HDV-Straight27" vClass="custom1" carFollowModel="Krauss" color="blue" sigma="0.821" tau="1.351" decel="3.406" accel="3.449" emergencyDecel="9.000" lcAssertive="1.246" actionStepLength="0.100" speedFactor="1.131">
            <param key="has.toc.device" value="false"/>
            <param key="has.ssm.device" value="true"/>
            <param key="device.ssm.measures" value="TTC"/>
            <param key="device.ssm.thresholds" value="3.000"/>
            <param key="device.ssm.range" value="50.000"/>
            <param key="device.ssm.extratime" value="5.000"/>
            <param key="device.ssm.file" value="Output-Files\SSM-HDV.xml"/>
            <param key="device.ssm.trajectories" value="false"/>
            <param key="device.ssm.geo" value="false"/>
        </vType>
        <vType id="L0-HDV-Straight28" vClass="custom1" carFollowModel="Krauss" color="blue" sigma="0.776" tau="0.922" decel="3.570" accel="1.297" emergencyDecel="9.000" lcAssertive="1.227" actionStepLength="0.100" speedFactor="0.973">
            <param key="has.toc.device" value="false"/>
            <param key="has.ssm.device" value="true"/>
            <param key="device.ssm.measures" value="TTC"/>
            <param key="device.ssm.thresholds" value="3.000"/>
            <param key="device.ssm.range" value="50.000"/>
            <param key="device.ssm.extratime" value="5.000"/>
            <param key="device.ssm.file" value="Output-Files\SSM-HDV.xml"/>
            <param key="device.ssm.trajectories" value="false"/>
            <param key="device.ssm.geo" value="false"/>
        </vType>
        <vType id="L0-HDV-Straight29" vClass="custom1" carFollowModel="Krauss" color="blue" sigma="0.363" tau="0.714" decel="4.138" accel="3.317" emergencyDecel="9.000" lcAssertive="1.186" actionStepLength="0.100" speedFactor="0.934">
            <param key="has.toc.device" value="false"/>
            <param key="has.ssm.device" value="true"/>
            <param key="device.ssm.measures" value="TTC"/>
            <param key="device.ssm.thresholds" value="3.000"/>
            <param key="device.ssm.range" value="50.000"/>
            <param key="device.ssm.extratime" value="5.000"/>
            <param key="device.ssm.file" value="Output-Files\SSM-HDV.xml"/>
            <param key="device.ssm.trajectories" value="false"/>
            <param key="device.ssm.geo" value="false"/>
        </vType>
        <vType id="L0-HDV-Straight30" vClass="custom1" carFollowModel="Krauss" color="blue" sigma="0.696" tau="1.139" decel="3.488" accel="1.593" emergencyDecel="9.000" lcAssertive="1.268" actionStepLength="0.100" speedFactor="1.181">
            <param key="has.toc.device" value="false"/>
            <param key="has.ssm.device" value="true"/>
            <param key="device.ssm.measures" value="TTC"/>
            <param key="device.ssm.thresholds" value="3.000"/>
            <param key="device.ssm.range" value="50.000"/>
            <param key="device.ssm.extratime" value="5.000"/>
            <param key="device.ssm.file" value="Output-Files\SSM-HDV.xml"/>
            <param key="device.ssm.trajectories" value="false"/>
            <param key="device.ssm.geo" value="false"/>
        </vType>
        <vType id="L0-HDV-Straight31" vClass="custom1" carFollowModel="Krauss" color="blue" sigma="0.127" tau="1.036" decel="3.901" accel="1.984" emergencyDecel="9.000" lcAssertive="1.180" actionStepLength="0.100" speedFactor="0.909">
            <param key="has.toc.device" value="false"/>
            <param key="has.ssm.device" value="true"/>
            <param key="device.ssm.measures" value="TTC"/>
            <param key="device.ssm.thresholds" value="3.000"/>
            <param key="device.ssm.range" value="50.000"/>
            <param key="device.ssm.extratime" value="5.000"/>
            <param key="device.ssm.file" value="Output-Files\SSM-HDV.xml"/>
            <param key="device.ssm.trajectories" value="false"/>
            <param key="device.ssm.geo" value="false"/>
        </vType>
        <vType id="L0-HDV-Straight32" vClass="custom1" carFollowModel="Krauss" color="blue" sigma="0.798" tau="0.543" decel="3.161" accel="2.125" emergencyDecel="9.000" lcAssertive="1.158" actionStepLength="0.100" speedFactor="1.030">
            <param key="has.toc.device" value="false"/>
            <param key="has.ssm.device" value="true"/>
            <param key="device.ssm.measures" value="TTC"/>
            <param key="device.ssm.thresholds" value="3.000"/>
            <param key="device.ssm.range" value="50.000"/>
            <param key="device.ssm.extratime" value="5.000"/>
            <param key="device.ssm.file" value="Output-Files\SSM-HDV.xml"/>
            <param key="device.ssm.trajectories" value="false"/>
            <param key="device.ssm.geo" value="false"/>
        </vType>
        <vType id="L0-HDV-Straight33" vClass="custom1" carFollowModel="Krauss" color="blue" sigma="0.323" tau="0.649" decel="3.425" accel="3.136" emergencyDecel="9.000" lcAssertive="1.238" actionStepLength="0.100" speedFactor="1.129">
            <param key="has.toc.device" value="false"/>
            <param key="has.ssm.device" value="true"/>
            <param key="device.ssm.measures" value="TTC"/>
            <param key="device.ssm.thresholds" value="3.000"/>
            <param key="device.ssm.range" value="50.000"/>
            <param key="device.ssm.extratime" value="5.000"/>
            <param key="device.ssm.file" value="Output-Files\SSM-HDV.xml"/>
            <param key="device.ssm.trajectories" value="false"/>
            <param key="device.ssm.geo" value="false"/>
        </vType>
        <vType id="L0-HDV-Straight34" vClass="custom1" carFollowModel="Krauss" color="blue" sigma="0.936" tau="0.637" decel="2.969" accel="1.979" emergencyDecel="9.000" lcAssertive="1.205" actionStepLength="0.100" speedFactor="1.139">
            <param key="has.toc.device" value="false"/>
            <param key="has.ssm.device" value="true"/>
            <param key="device.ssm.measures" value="TTC"/>
            <param key="device.ssm.thresholds" value="3.000"/>
            <param key="device.ssm.range" value="50.000"/>
            <param key="device.ssm.extratime" value="5.000"/>
            <param key="device.ssm.file" value="Output-Files\SSM-HDV.xml"/>
            <param key="device.ssm.trajectories" value="false"/>
            <param key="device.ssm.geo" value="false"/>
        </vType>
        <vType id="L0-HDV-Straight35" vClass="custom1" carFollowModel="Krauss" color="blue" sigma="0.144" tau="0.680" decel="4.370" accel="3.187" emergencyDecel="9.000" lcAssertive="1.257" actionStepLength="0.100" speedFactor="1.116">
            <param key="has.toc.device" value="false"/>
            <param key="has.ssm.device" value="true"/>
            <param key="device.ssm.measures" value="TTC"/>
            <param key="device.ssm.thresholds" value="3.000"/>
            <param key="device.ssm.range" value="50.000"/>
            <param key="device.ssm.extratime" value="5.000"/>
            <param key="device.ssm.file" value="Output-Files\SSM-HDV.xml"/>
            <param key="device.ssm.trajectories" value="false"/>
            <param key="device.ssm.geo" value="false"/>
        </vType>
        <vType id="L0-HDV-Straight36" vClass="custom1" carFollowModel="Krauss" color="blue" sigma="0.523" tau="0.757" decel="2.599" accel="1.699" emergencyDecel="9.000" lcAssertive="1.278" actionStepLength="0.100" speedFactor="0.987">
            <param key="has.toc.device" value="false"/>
            <param key="has.ssm.device" value="true"/>
            <param key="device.ssm.measures" value="TTC"/>
            <param key="device.ssm.thresholds" value="3.000"/>
            <param key="device.ssm.range" value="50.000"/>
            <param key="device.ssm.extratime" value="5.000"/>