<?xml version="1.0" ?><!-- generated on 03/31/21 20:03:31 by Eclipse SUMO duarouter Version 1.8.0
<configuration xmlns:xsi="http://www.w3.org/2001/XMLSchema-instance" xsi:noNamespaceSchemaLocation="http://sumo.dlr.de/xsd/duarouterConfiguration.xsd">

    <input>
        <net-file value="Collision/CollisionIntersection.net.xml"/>
        <route-files value="trips.trips.xml"/>
    </input>

    <output>
        <output-file value="Collision/BaselinePenetration1/Route-Files/L4-AV-Route.rou.xml"/>
        <alternatives-output value="Collision/BaselinePenetration1/Route-Files/L4-AV-Route.rou.alt.xml"/>
    </output>

    <time>
        <begin value="120"/>
        <end value="3600"/>
    </time>

    <report>
        <no-warnings value="true"/>
        <ignore-errors value="true"/>
        <no-step-log value="true"/>
    </report>

</configuration>
--><routes xmlns:xsi="http://www.w3.org/2001/XMLSchema-instance" xsi:noNamespaceSchemaLocation="http://sumo.dlr.de/xsd/routes_file.xsd">
    <vehicle id="L4-AV-2" type="L4-AV-" depart="172.00">
        <route edges="top-approaching right-exit"/>
    </vehicle>
    <vehicle id="L4-AV-3" type="L4-AV-" depart="198.00">
        <route edges="right-approaching left-exit-blockage left-exit"/>
    </vehicle>
    <vehicle id="L4-AV-5" type="L4-AV-" depart="250.00">
        <route edges="right-approaching bottom-exit"/>
    </vehicle>
    <vehicle id="L4-AV-7" type="L4-AV-" depart="302.00">
        <route edges="right-approaching top-exit"/>
    </vehicle>
    <vehicle id="L4-AV-8" type="L4-AV-" depart="328.00">
        <route edges="top-approaching right-exit"/>
    </vehicle>
    <vehicle id="L4-AV-12" type="L4-AV-Left-" depart="432.00">
        <route edges="left-long-approaching left-short-approaching top-exit"/>
    </vehicle>
    <vehicle id="L4-AV-15" type="L4-AV-Right-" depart="510.00">
        <route edges="left-long-approaching left-short-approaching bottom-exit"/>
    </vehicle>
    <vehicle id="L4-AV-16" type="L4-AV-" depart="536.00">
        <route edges="right-approaching top-exit"/>
    </vehicle>
    <vehicle id="L4-AV-17" type="L4-AV-" depart="562.00">
        <route edges="right-approaching bottom-exit"/>
    </vehicle>
    <vehicle id="L4-AV-19" type="L4-AV-" depart="614.00">
        <route edges="right-approaching top-exit"/>
    </vehicle>
    <vehicle id="L4-AV-21" type="L4-AV-Left-" depart="666.00">
        <route edges="left-long-approaching left-short-approaching top-exit"/>
    </vehicle>
    <vehicle id="L4-AV-22" type="L4-AV-" depart="692.00">
        <route edges="top-approaching bottom-exit"/>
    </vehicle>
    <vehicle id="L4-AV-23" type="L4-AV-" depart="718.00">
        <route edges="top-approaching right-exit"/>
    </vehicle>
    <vehicle id="L4-AV-24" type="L4-AV-" depart="744.00">
        <route edges="left-long-approaching left-short-approaching right-exit"/>
    </vehicle>
    <vehicle id="L4-AV-25" type="L4-AV-Left-" depart="770.00">
        <route edges="left-long-approaching left-short-approaching top-exit"/>
    </vehicle>
    <vehicle id="L4-AV-26" type="L4-AV-Left-" depart="796.00">
        <route edges="left-long-approaching left-short-approaching top-exit"/>
    </vehicle>
    <vehicle id="L4-AV-27" type="L4-AV-Left-" depart="822.00">
        <route edges="left-long-approaching left-short-approaching top-exit"/>
    </vehicle>
    <vehicle id="L4-AV-28" type="L4-AV-" depart="848.00">
        <route edges="top-approaching left-exit-blockage left-exit"/>
    </vehicle>
    <vehicle id="L4-AV-29" type="L4-AV-" depart="874.00">
        <route edges="right-approaching top-exit"/>
    </vehicle>
    <vehicle id="L4-AV-30" type="L4-AV-" depart="900.00">
        <route edges="right-approaching left-exit-blockage left-exit"/>
    </vehicle>
    <vehicle id="L4-AV-31" type="L4-AV-" depart="926.00">
        <route edges="bottom-approaching left-exit-blockage left-exit"/>
    </vehicle>
    <vehicle id="L4-AV-32" type="L4-AV-" depart="952.00">
        <route edges="right-approaching bottom-exit"/>
    </vehicle>
    <vehicle id="L4-AV-33" type="L4-AV-" depart="978.00">
        <route edges="top-approaching left-exit-blockage left-exit"/>
    </vehicle>
    <vehicle id="L4-AV-34" type="L4-AV-" depart="1004.00">
        <route edges="top-approaching left-exit-blockage left-exit"/>
    </vehicle>
    <vehicle id="L4-AV-35" type="L4-AV-" depart="1030.00">
        <route edges="top-approaching right-exit"/>
    </vehicle>
    <vehicle id="L4-AV-36" type="L4-AV-" depart="1056.00">
        <route edges="left-long-approaching left-short-approaching right-exit"/>
    </vehicle>
    <vehicle id="L4-AV-38" type="L4-AV-Right-" depart="1108.00">
        <route edges="left-long-approaching left-short-approaching bottom-exit"/>
    </vehicle>
    <vehicle id="L4-AV-39" type="L4-AV-" depart="1134.00">
        <route edges="right-approaching top-exit"/>
    </vehicle>
    <vehicle id="L4-AV-40" type="L4-AV-" depart="1160.00">
        <route edges="right-approaching bottom-exit"/>
    </vehicle>
    <vehicle id="L4-AV-41" type="L4-AV-" depart="1186.00">
        <route edges="top-approaching right-exit"/>
    </vehicle>
    <vehicle id="L4-AV-42" type="L4-AV-" depart="1212.00">
        <route edges="top-approaching bottom-exit"/>
    </vehicle>
    <vehicle id="L4-AV-43" type="L4-AV-" depart="1238.00">
        <route edges="right-approaching bottom-exit"/>
    </vehicle>
    <vehicle id="L4-AV-44" type="L4-AV-" depart="1264.00">
        <route edges="right-approaching left-exit-blockage left-exit"/>
    </vehicle>
    <vehicle id="L4-AV-45" type="L4-AV-" depart="1290.00">
        <route edges="bottom-approaching top-exit"/>
    </vehicle>
    <vehicle id="L4-AV-46" type="L4-AV-" depart="1316.00">
        <route edges="bottom-approaching right-exit"/>
    </vehicle>
    <vehicle id="L4-AV-47" type="L4-AV-" depart="1342.00">
        <route edges="top-approaching bottom-exit"/>
    </vehicle>
    <vehicle id="L4-AV-48" type="L4-AV-" depart="1368.00">
        <route edges="bottom-approaching top-exit"/>
    </vehicle>
    <vehicle id="L4-AV-49" type="L4-AV-" depart="1394.00">
        <route edges="left-long-approaching left-short-approaching right-exit"/>
    </vehicle>
    <vehicle id="L4-AV-50" type="L4-AV-" depart="1420.00">
        <route edges="bottom-approaching left-exit-blockage left-exit"/>
    </vehicle>
    <vehicle id="L4-AV-51" type="L4-AV-" depart="1446.00">
        <route edges="bottom-approaching right-exit"/>
    </vehicle>
    <vehicle id="L4-AV-52" type="L4-AV-" depart="1472.00">
        <route edges="bottom-approaching top-exit"/>
    </vehicle>
    <vehicle id="L4-AV-53" type="L4-AV-" depart="1498.00">
        <route edges="bottom-approaching right-exit"/>
    </vehicle>
    <vehicle id="L4-AV-54" type="L4-AV-" depart="1524.00">
        <route edges="bottom-approaching left-exit-blockage left-exit"/>
    </vehicle>
    <vehicle id="L4-AV-55" type="L4-AV-" depart="1550.00">
        <route edges="top-approaching bottom-exit"/>
    </vehicle>
    <vehicle id="L4-AV-56" type="L4-AV-" depart="1576.00">
        <route edges="bottom-approaching right-exit"/>
    </vehicle>
    <vehicle id="L4-AV-57" type="L4-AV-Right-" depart="1602.00">
        <route edges="left-long-approaching left-short-approaching bottom-exit"/>
    </vehicle>
    <vehicle id="L4-AV-58" type="L4-AV-" depart="1628.00">
        <route edges="top-approaching bottom-exit"/>
    </vehicle>
    <vehicle id="L4-AV-59" type="L4-AV-" depart="1654.00">
        <route edges="bottom-approaching left-exit-blockage left-exit"/>
    </vehicle>
    <vehicle id="L4-AV-61" type="L4-AV-" depart="1706.00">
        <route edges="bottom-approaching left-exit-blockage left-exit"/>
    </vehicle>
    <vehicle id="L4-AV-62" type="L4-AV-" depart="1732.00">
        <route edges="bottom-approaching left-exit-blockage left-exit"/>
    </vehicle>
    <vehicle id="L4-AV-63" type="L4-AV-" depart="1758.00">
        <route edges="top-approaching right-exit"/>
    </vehicle>
    <vehicle id="L4-AV-65" type="L4-AV-" depart="1810.00">
        <route edges="top-approaching right-exit"/>
    </vehicle>
    <vehicle id="L4-AV-66" type="L4-AV-Right-" depart="1836.00">
        <route edges="left-long-approaching left-short-approaching bottom-exit"/>
    </vehicle>
    <vehicle id="L4-AV-67" type="L4-AV-" depart="1862.00">
        <route edges="right-approaching left-exit-blockage left-exit"/>
    </vehicle>
    <vehicle id="L4-AV-68" type="L4-AV-" depart="1888.00">
        <route edges="bottom-approaching left-exit-blockage left-exit"/>
    </vehicle>
    <vehicle id="L4-AV-69" type="L4-AV-" depart="1914.00">
        <route edges="top-approaching bottom-exit"/>
    </vehicle>
    <vehicle id="L4-AV-70" type="L4-AV-" depart="1940.00">
        <route edges="right-approaching left-exit-blockage left-exit"/>
    </vehicle>
    <vehicle id="L4-AV-71" type="L4-AV-" depart="1966.00">
        <route edges="right-approaching bottom-exit"/>
    </vehicle>
    <vehicle id="L4-AV-72" type="L4-AV-" depart="1992.00">
        <route edges="top-approaching left-exit-blockage left-exit"/>
    </vehicle>
    <vehicle id="L4-AV-73" type="L4-AV-" depart="2018.00">
        <route edges="right-approaching left-exit-blockage left-exit"/>
    </vehicle>
    <vehicle id="L4-AV-74" type="L4-AV-" depart="2044.00">
        <route edges="bottom-approaching right-exit"/>
    </vehicle>
    <vehicle id="L4-AV-77" type="L4-AV-" depart="2122.00">
        <route edges="bottom-approaching right-exit"/>
    </vehicle>
    <vehicle id="L4-AV-78" type="L4-AV-" depart="2148.00">
        <route edges="right-approaching top-exit"/>
    </vehicle>
    <vehicle id="L4-AV-80" type="L4-AV-" depart="2200.00">
        <route edges="bottom-approaching left-exit-blockage left-exit"/>
    </vehicle>
    <vehicle id="L4-AV-82" type="L4-AV-" depart="2252.00">
        <route edges="right-approaching top-exit"/>
    </vehicle>
    <vehicle id="L4-AV-83" type="L4-AV-" depart="2278.00">
        <route edges="right-approaching left-exit-blockage left-exit"/>
    </vehicle>
    <vehicle id="L4-AV-84" type="L4-AV-" depart="2304.00">
        <route edges="left-long-approaching left-short-approaching right-exit"/>
    </vehicle>
    <vehicle id="L4-AV-86" type="L4-AV-Right-" depart="2356.00">
        <route edges="left-long-approaching left-short-approaching bottom-exit"/>
    </vehicle>
    <vehicle id="L4-AV-87" type="L4-AV-" depart="2382.00">
        <route edges="right-approaching bottom-exit"/>
    </vehicle>
    <vehicle id="L4-AV-90" type="L4-AV-" depart="2460.00">
        <route edges="right-approaching left-exit-blockage left-exit"/>
    </vehicle>
    <vehicle id="L4-AV-91" type="L4-AV-" depart="2486.00">
        <route edges="left-long-approaching left-short-approaching right-exit"/>
    </vehicle>
    <vehicle id="L4-AV-92" type="L4-AV-" depart="2512.00">
        <route edges="bottom-approaching top-exit"/>
    </vehicle>
    <vehicle id="L4-AV-93" type="L4-AV-" depart="2538.00">
        <route edges="top-approaching right-exit"/>
    </vehicle>
    <vehicle id="L4-AV-94" type="L4-AV-" depart="2564.00">
        <route edges="left-long-approaching left-short-approaching right-exit"/>
    </vehicle>
    <vehicle id="L4-AV-95" type="L4-AV-" depart="2590.00">
        <route edges="right-approaching bottom-exit"/>
    </vehicle>
    <vehicle id="L4-AV-96" type="L4-AV-" depart="2616.00">
        <route edges="left-long-approaching left-short-approaching right-exit"/>
    </vehicle>
    <vehicle id="L4-AV-98" type="L4-AV-" depart="2668.00">
        <route edges="top-approaching left-exit-blockage left-exit"/>
    </vehicle>
    <vehicle id="L4-AV-99" type="L4-AV-" depart="2694.00">
        <route edges="right-approaching top-exit"/>
    </vehicle>
    <vehicle id="L4-AV-100" type="L4-AV-" depart="2720.00">
        <route edges="right-approaching left-exit-blockage left-exit"/>
    </vehicle>
    <vehicle id="L4-AV-101" type="L4-AV-" depart="2746.00">
        <route edges="top-approaching left-exit-blockage left-exit"/>
    </vehicle>
    <vehicle id="L4-AV-102" type="L4-AV-" depart="2772.00">
        <route edges="bottom-approaching right-exit"/>
    </vehicle>
    <vehicle id="L4-AV-103" type="L4-AV-" depart="2798.00">
        <route edges="bottom-approaching left-exit-blockage left-exit"/>
    </vehicle>
    <vehicle id="L4-AV-104" type="L4-AV-" depart="2824.00">
        <route edges="top-approaching right-exit"/>
    </vehicle>
    <vehicle id="L4-AV-105" type="L4-AV-" depart="2850.00">
        <route edges="bottom-approaching left-exit-blockage left-exit"/>
    </vehicle>
    <vehicle id="L4-AV-107" type="L4-AV-" depart="2902.00">
        <route edges="bottom-approaching right-exit"/>
    </vehicle>
    <vehicle id="L4-AV-108" type="L4-AV-" depart="2928.00">
        <route edges="bottom-approaching left-exit-blockage left-exit"/>
    </vehicle>
    <vehicle id="L4-AV-109" type="L4-AV-Left-" depart="2954.00">
        <route edges="left-long-approaching left-short-approaching top-exit"/>
    </vehicle>
    <vehicle id="L4-AV-110" type="L4-AV-" depart="2980.00">
        <route edges="bottom-approaching top-exit"/>
    </vehicle>
    <vehicle id="L4-AV-111" type="L4-AV-" depart="3006.00">
        <route edges="bottom-approaching right-exit"/>
    </vehicle>
    <vehicle id="L4-AV-113" type="L4-AV-" depart="3058.00">
        <route edges="top-approaching left-exit-blockage left-exit"/>
    </vehicle>
    <vehicle id="L4-AV-115" type="L4-AV-" depart="3110.00">
        <route edges="bottom-approaching top-exit"/>
    </vehicle>
    <vehicle id="L4-AV-116" type="L4-AV-" depart="3136.00">
        <route edges="right-approaching top-exit"/>
    </vehicle>
    <vehicle id="L4-AV-117" type="L4-AV-" depart="3162.00">
        <route edges="right-approaching bottom-exit"/>
    </vehicle>
    <vehicle id="L4-AV-118" type="L4-AV-" depart="3188.00">
        <route edges="right-approaching top-exit"/>
    </vehicle>
    <vehicle id="L4-AV-119" type="L4-AV-" depart="3214.00">
        <route edges="right-approaching left-exit-blockage left-exit"/>
    </vehicle>
    <vehicle id="L4-AV-121" type="L4-AV-" depart="3266.00">
        <route edges="top-approaching left-exit-blockage left-exit"/>
    </vehicle>
    <vehicle id="L4-AV-122" type="L4-AV-" depart="3292.00">
        <route edges="right-approaching left-exit-blockage left-exit"/>
    </vehicle>
    <vehicle id="L4-AV-125" type="L4-AV-Right-" depart="3370.00">
        <route edges="left-long-approaching left-short-approaching bottom-exit"/>
    </vehicle>
    <vehicle id="L4-AV-127" type="L4-AV-" depart="3422.00">
        <route edges="left-long-approaching left-short-approaching right-exit"/>
    </vehicle>
    <vehicle id="L4-AV-128" type="L4-AV-" depart="3448.00">
        <route edges="top-approaching right-exit"/>
    </vehicle>
    <vehicle id="L4-AV-129" type="L4-AV-" depart="3474.00">
        <route edges="top-approaching bottom-exit"/>
    </vehicle>
    <vehicle id="L4-AV-130" type="L4-AV-Left-" depart="3500.00">
        <route edges="left-long-approaching left-short-approaching top-exit"/>
    </vehicle>
    <vehicle id="L4-AV-131" type="L4-AV-" depart="3526.00">
        <route edges="bottom-approaching left-exit-blockage left-exit"/>
    </vehicle>
</routes>