<?xml version="1.0" encoding="UTF-8"?>

<!-- generated on 03/07/21 15:14:55 by Eclipse SUMO duarouter Version 1.8.0
<configuration xmlns:xsi="http://www.w3.org/2001/XMLSchema-instance" xsi:noNamespaceSchemaLocation="http://sumo.dlr.de/xsd/duarouterConfiguration.xsd">

    <input>
        <net-file value="Collision/CollisionIntersection.net.xml"/>
        <route-files value="trips.trips.xml"/>
    </input>

    <output>
        <output-file value="Collision/BaselineHDV/Route-Files/L0-HDV-Route.rou.xml"/>
        <alternatives-output value="Collision/BaselineHDV/Route-Files/L0-HDV-Route.rou.alt.xml"/>
    </output>

    <time>
        <begin value="120"/>
        <end value="3600"/>
    </time>

    <report>
        <no-warnings value="true"/>
        <ignore-errors value="true"/>
        <no-step-log value="true"/>
    </report>

</configuration>
-->

<routes xmlns:xsi="http://www.w3.org/2001/XMLSchema-instance" xsi:noNamespaceSchemaLocation="http://sumo.dlr.de/xsd/routes_file.xsd">
    <vehicle id="L0-HDV-0" type="L0-HDV" depart="120.00">
        <route edges="top-approaching right-exit"/>
    </vehicle>
    <vehicle id="L0-HDV-3" type="L0-HDV" depart="122.82">
        <route edges="right-approaching left-exit"/>
    </vehicle>
    <vehicle id="L0-HDV-5" type="L0-HDV" depart="124.70">
        <route edges="top-approaching left-exit"/>
    </vehicle>
    <vehicle id="L0-HDV-6" type="L0-HDV" depart="125.64">
        <route edges="left-approaching right-exit"/>
    </vehicle>
    <vehicle id="L0-HDV-7" type="L0-HDV" depart="126.58">
        <route edges="right-approaching left-exit"/>
    </vehicle>
    <vehicle id="L0-HDV-10" type="L0-HDV" depart="129.40">
        <route edges="left-approaching right-exit"/>
    </vehicle>
    <vehicle id="L0-HDV-11" type="L0-HDV" depart="130.34">
        <route edges="top-approaching right-exit"/>
    </vehicle>
    <vehicle id="L0-HDV-12" type="L0-HDV" depart="131.28">
        <route edges="left-approaching bottom-exit"/>
    </vehicle>
    <vehicle id="L0-HDV-13" type="L0-HDV" depart="132.22">
        <route edges="left-approaching right-exit"/>
    </vehicle>
    <vehicle id="L0-HDV-15" type="L0-HDV" depart="134.10">
        <route edges="left-approaching top-exit"/>
    </vehicle>
    <vehicle id="L0-HDV-16" type="L0-HDV" depart="135.04">
        <route edges="left-approaching top-exit"/>
    </vehicle>
    <vehicle id="L0-HDV-17" type="L0-HDV" depart="135.98">
        <route edges="left-approaching bottom-exit"/>
    </vehicle>
    <vehicle id="L0-HDV-18" type="L0-HDV" depart="136.92">
        <route edges="right-approaching left-exit"/>
    </vehicle>
    <vehicle id="L0-HDV-19" type="L0-HDV" depart="137.86">
        <route edges="top-approaching right-exit"/>
    </vehicle>
    <vehicle id="L0-HDV-20" type="L0-HDV" depart="138.80">
        <route edges="bottom-approaching left-exit"/>
    </vehicle>
    <vehicle id="L0-HDV-21" type="L0-HDV" depart="139.74">
        <route edges="top-approaching left-exit"/>
    </vehicle>
    <vehicle id="L0-HDV-22" type="L0-HDV" depart="140.68">
        <route edges="left-approaching top-exit"/>
    </vehicle>
    <vehicle id="L0-HDV-23" type="L0-HDV" depart="141.62">
        <route edges="bottom-approaching left-exit"/>
    </vehicle>
    <vehicle id="L0-HDV-24" type="L0-HDV" depart="142.56">
        <route edges="left-approaching top-exit"/>
    </vehicle>
    <vehicle id="L0-HDV-25" type="L0-HDV" depart="143.50">
        <route edges="top-approaching left-exit"/>
    </vehicle>
    <vehicle id="L0-HDV-26" type="L0-HDV" depart="144.44">
        <route edges="bottom-approaching left-exit"/>
    </vehicle>
    <vehicle id="L0-HDV-27" type="L0-HDV" depart="145.38">
        <route edges="left-approaching top-exit"/>
    </vehicle>
    <vehicle id="L0-HDV-28" type="L0-HDV" depart="146.32">
        <route edges="bottom-approaching left-exit"/>
    </vehicle>
    <vehicle id="L0-HDV-29" type="L0-HDV" depart="147.26">
        <route edges="right-approaching left-exit"/>
    </vehicle>
    <vehicle id="L0-HDV-30" type="L0-HDV" depart="148.20">
        <route edges="top-approaching left-exit"/>
    </vehicle>
    <vehicle id="L0-HDV-31" type="L0-HDV" depart="149.14">
        <route edges="top-approaching right-exit"/>
    </vehicle>
    <vehicle id="L0-HDV-32" type="L0-HDV" depart="150.08">
        <route edges="right-approaching left-exit"/>
    </vehicle>
    <vehicle id="L0-HDV-33" type="L0-HDV" depart="151.02">
        <route edges="right-approaching left-exit"/>
    </vehicle>
    <vehicle id="L0-HDV-37" type="L0-HDV" depart="154.78">
        <route edges="left-approaching bottom-exit"/>
    </vehicle>
    <vehicle id="L0-HDV-38" type="L0-HDV" depart="155.72">
        <route edges="right-approaching top-exit"/>
    </vehicle>
    <vehicle id="L0-HDV-42" type="L0-HDV" depart="159.48">
        <route edges="right-approaching left-exit"/>
    </vehicle>
    <vehicle id="L0-HDV-44" type="L0-HDV" depart="161.36">
        <route edges="top-approaching right-exit"/>
    </vehicle>
    <vehicle id="L0-HDV-45" type="L0-HDV" depart="162.30">
        <route edges="top-approaching left-exit"/>
    </vehicle>
    <vehicle id="L0-HDV-46" type="L0-HDV" depart="163.24">
        <route edges="left-approaching right-exit"/>
    </vehicle>
    <vehicle id="L0-HDV-48" type="L0-HDV" depart="165.12">
        <route edges="top-approaching bottom-exit"/>
    </vehicle>
    <vehicle id="L0-HDV-49" type="L0-HDV" depart="166.06">
        <route edges="right-approaching left-exit"/>
    </vehicle>
    <vehicle id="L0-HDV-50" type="L0-HDV" depart="167.00">
        <route edges="right-approaching top-exit"/>
    </vehicle>
    <vehicle id="L0-HDV-51" type="L0-HDV" depart="167.94">
        <route edges="left-approaching right-exit"/>
    </vehicle>
    <vehicle id="L0-HDV-52" type="L0-HDV" depart="168.88">
        <route edges="bottom-approaching left-exit"/>
    </vehicle>
    <vehicle id="L0-HDV-53" type="L0-HDV" depart="169.82">
        <route edges="top-approaching left-exit"/>
    </vehicle>
    <vehicle id="L0-HDV-54" type="L0-HDV" depart="170.76">
        <route edges="top-approaching bottom-exit"/>
    </vehicle>
    <vehicle id="L0-HDV-55" type="L0-HDV" depart="171.70">
        <route edges="bottom-approaching right-exit"/>
    </vehicle>
    <vehicle id="L0-HDV-56" type="L0-HDV" depart="172.64">
        <route edges="bottom-approaching left-exit"/>
    </vehicle>
    <vehicle id="L0-HDV-57" type="L0-HDV" depart="173.58">
        <route edges="top-approaching left-exit"/>
    </vehicle>
    <vehicle id="L0-HDV-58" type="L0-HDV" depart="174.52">
        <route edges="right-approaching bottom-exit"/>
    </vehicle>
    <vehicle id="L0-HDV-61" type="L0-HDV" depart="177.34">
        <route edges="left-approaching top-exit"/>
    </vehicle>
    <vehicle id="L0-HDV-63" type="L0-HDV" depart="179.22">
        <route edges="top-approaching bottom-exit"/>
    </vehicle>
    <vehicle id="L0-HDV-64" type="L0-HDV" depart="180.16">
        <route edges="bottom-approaching left-exit"/>
    </vehicle>
    <vehicle id="L0-HDV-66" type="L0-HDV" depart="182.04">
        <route edges="bottom-approaching left-exit"/>
    </vehicle>
    <vehicle id="L0-HDV-67" type="L0-HDV" depart="182.98">
        <route edges="bottom-approaching left-exit"/>
    </vehicle>
    <vehicle id="L0-HDV-68" type="L0-HDV" depart="183.92">
        <route edges="left-approaching right-exit"/>
    </vehicle>
    <vehicle id="L0-HDV-69" type="L0-HDV" depart="184.86">
        <route edges="left-approaching bottom-exit"/>
    </vehicle>
    <vehicle id="L0-HDV-70" type="L0-HDV" depart="185.80">
        <route edges="left-approaching bottom-exit"/>
    </vehicle>
    <vehicle id="L0-HDV-71" type="L0-HDV" depart="186.74">
        <route edges="bottom-approaching top-exit"/>
    </vehicle>
    <vehicle id="L0-HDV-72" type="L0-HDV" depart="187.68">
        <route edges="bottom-approaching left-exit"/>
    </vehicle>
    <vehicle id="L0-HDV-73" type="L0-HDV" depart="188.62">
        <route edges="right-approaching top-exit"/>
    </vehicle>
    <vehicle id="L0-HDV-74" type="L0-HDV" depart="189.56">
        <route edges="top-approaching bottom-exit"/>
    </vehicle>
    <vehicle id="L0-HDV-75" type="L0-HDV" depart="190.50">
        <route edges="right-approaching top-exit"/>
    </vehicle>
    <vehicle id="L0-HDV-76" type="L0-HDV" depart="191.44">
        <route edges="bottom-approaching right-exit"/>
    </vehicle>
    <vehicle id="L0-HDV-77" type="L0-HDV" depart="192.38">
        <route edges="top-approaching left-exit"/>
    </vehicle>
    <vehicle id="L0-HDV-78" type="L0-HDV" depart="193.32">
        <route edges="left-approaching right-exit"/>
    </vehicle>
    <vehicle id="L0-HDV-79" type="L0-HDV" depart="194.26">
        <route edges="left-approaching bottom-exit"/>
    </vehicle>
    <vehicle id="L0-HDV-83" type="L0-HDV" depart="198.02">
        <route edges="top-approaching left-exit"/>
    </vehicle>
    <vehicle id="L0-HDV-84" type="L0-HDV" depart="198.96">
        <route edges="left-approaching bottom-exit"/>
    </vehicle>
    <vehicle id="L0-HDV-85" type="L0-HDV" depart="199.90">
        <route edges="right-approaching left-exit"/>
    </vehicle>
    <vehicle id="L0-HDV-86" type="L0-HDV" depart="200.84">
        <route edges="bottom-approaching left-exit"/>
    </vehicle>
    <vehicle id="L0-HDV-87" type="L0-HDV" depart="201.78">
        <route edges="left-approaching top-exit"/>
    </vehicle>
    <vehicle id="L0-HDV-89" type="L0-HDV" depart="203.66">
        <route edges="left-approaching top-exit"/>
    </vehicle>
    <vehicle id="L0-HDV-91" type="L0-HDV" depart="205.54">
        <route edges="right-approaching left-exit"/>
    </vehicle>
    <vehicle id="L0-HDV-92" type="L0-HDV" depart="206.48">
        <route edges="left-approaching right-exit"/>
    </vehicle>
    <vehicle id="L0-HDV-95" type="L0-HDV" depart="209.30">
        <route edges="right-approaching left-exit"/>
    </vehicle>
    <vehicle id="L0-HDV-96" type="L0-HDV" depart="210.24">
        <route edges="top-approaching left-exit"/>
    </vehicle>
    <vehicle id="L0-HDV-98" type="L0-HDV" depart="212.12">
        <route edges="right-approaching left-exit"/>
    </vehicle>
    <vehicle id="L0-HDV-99" type="L0-HDV" depart="213.06">
        <route edges="right-approaching bottom-exit"/>
    </vehicle>
    <vehicle id="L0-HDV-101" type="L0-HDV" depart="214.94">
        <route edges="bottom-approaching left-exit"/>
    </vehicle>
    <vehicle id="L0-HDV-103" type="L0-HDV" depart="216.82">
        <route edges="right-approaching top-exit"/>
    </vehicle>
    <vehicle id="L0-HDV-105" type="L0-HDV" depart="218.70">
        <route edges="left-approaching top-exit"/>
    </vehicle>
    <vehicle id="L0-HDV-107" type="L0-HDV" depart="220.58">
        <route edges="bottom-approaching top-exit"/>
    </vehicle>
    <vehicle id="L0-HDV-108" type="L0-HDV" depart="221.52">
        <route edges="right-approaching bottom-exit"/>
    </vehicle>
    <vehicle id="L0-HDV-109" type="L0-HDV" depart="222.46">
        <route edges="right-approaching top-exit"/>
    </vehicle>
    <vehicle id="L0-HDV-110" type="L0-HDV" depart="223.40">
        <route edges="left-approaching right-exit"/>
    </vehicle>
    <vehicle id="L0-HDV-112" type="L0-HDV" depart="225.28">
        <route edges="right-approaching bottom-exit"/>
    </vehicle>
    <vehicle id="L0-HDV-113" type="L0-HDV" depart="226.22">
        <route edges="top-approaching left-exit"/>
    </vehicle>
    <vehicle id="L0-HDV-115" type="L0-HDV" depart="228.10">
        <route edges="right-approaching top-exit"/>
    </vehicle>
    <vehicle id="L0-HDV-116" type="L0-HDV" depart="229.04">
        <route edges="left-approaching top-exit"/>
    </vehicle>
    <vehicle id="L0-HDV-117" type="L0-HDV" depart="229.98">
        <route edges="bottom-approaching top-exit"/>
    </vehicle>
    <vehicle id="L0-HDV-118" type="L0-HDV" depart="230.92">
        <route edges="left-approaching bottom-exit"/>
    </vehicle>
    <vehicle id="L0-HDV-120" type="L0-HDV" depart="232.80">
        <route edges="right-approaching top-exit"/>
    </vehicle>
    <vehicle id="L0-HDV-121" type="L0-HDV" depart="233.74">
        <route edges="bottom-approaching left-exit"/>
    </vehicle>
    <vehicle id="L0-HDV-122" type="L0-HDV" depart="234.68">
        <route edges="right-approaching left-exit"/>
    </vehicle>
    <vehicle id="L0-HDV-123" type="L0-HDV" depart="235.62">
        <route edges="top-approaching left-exit"/>
    </vehicle>
    <vehicle id="L0-HDV-125" type="L0-HDV" depart="237.50">
        <route edges="right-approaching left-exit"/>
    </vehicle>
    <vehicle id="L0-HDV-127" type="L0-HDV" depart="239.38">
        <route edges="top-approaching bottom-exit"/>
    </vehicle>
    <vehicle id="L0-HDV-130" type="L0-HDV" depart="242.20">
        <route edges="top-approaching right-exit"/>
    </vehicle>
    <vehicle id="L0-HDV-132" type="L0-HDV" depart="244.08">
        <route edges="left-approaching right-exit"/>
    </vehicle>
    <vehicle id="L0-HDV-134" type="L0-HDV" depart="245.96">
        <route edges="left-approaching right-exit"/>
    </vehicle>
    <vehicle id="L0-HDV-135" type="L0-HDV" depart="246.90">
        <route edges="right-approaching left-exit"/>
    </vehicle>
    <vehicle id="L0-HDV-136" type="L0-HDV" depart="247.84">
        <route edges="right-approaching bottom-exit"/>
    </vehicle>
    <vehicle id="L0-HDV-137" type="L0-HDV" depart="248.78">
        <route edges="bottom-approaching top-exit"/>
    </vehicle>
    <vehicle id="L0-HDV-142" type="L0-HDV" depart="253.48">
        <route edges="left-approaching bottom-exit"/>
    </vehicle>
    <vehicle id="L0-HDV-144" type="L0-HDV" depart="255.36">
        <route edges="left-approaching bottom-exit"/>
    </vehicle>
    <vehicle id="L0-HDV-145" type="L0-HDV" depart="256.30">
        <route edges="top-approaching left-exit"/>
    </vehicle>
    <vehicle id="L0-HDV-148" type="L0-HDV" depart="259.12">
        <route edges="right-approaching left-exit"/>
    </vehicle>
    <vehicle id="L0-HDV-149" type="L0-HDV" depart="260.06">
        <route edges="left-approaching right-exit"/>
    </vehicle>
    <vehicle id="L0-HDV-151" type="L0-HDV" depart="261.94">
        <route edges="right-approaching left-exit"/>
    </vehicle>
    <vehicle id="L0-HDV-152" type="L0-HDV" depart="262.88">
        <route edges="top-approaching right-exit"/>
    </vehicle>
    <vehicle id="L0-HDV-154" type="L0-HDV" depart="264.76">
        <route edges="right-approaching bottom-exit"/>
    </vehicle>
    <vehicle id="L0-HDV-155" type="L0-HDV" depart="265.70">
        <route edges="bottom-approaching left-exit"/>
    </vehicle>
    <vehicle id="L0-HDV-158" type="L0-HDV" depart="268.52">
        <route edges="right-approaching left-exit"/>
    </vehicle>
    <vehicle id="L0-HDV-159" type="L0-HDV" depart="269.46">
        <route edges="left-approaching top-exit"/>
    </vehicle>
    <vehicle id="L0-HDV-160" type="L0-HDV" depart="270.40">
        <route edges="left-approaching right-exit"/>
    </vehicle>
    <vehicle id="L0-HDV-162" type="L0-HDV" depart="272.28">
        <route edges="bottom-approaching top-exit"/>
    </vehicle>
    <vehicle id="L0-HDV-163" type="L0-HDV" depart="273.22">
        <route edges="right-approaching top-exit"/>
    </vehicle>
    <vehicle id="L0-HDV-164" type="L0-HDV" depart="274.16">
        <route edges="left-approaching right-exit"/>
    </vehicle>
    <vehicle id="L0-HDV-165" type="L0-HDV" depart="275.10">
        <route edges="bottom-approaching left-exit"/>
    </vehicle>
    <vehicle id="L0-HDV-167" type="L0-HDV" depart="276.98">
        <route edges="top-approaching left-exit"/>
    </vehicle>
    <vehicle id="L0-HDV-170" type="L0-HDV" depart="279.80">
        <route edges="bottom-approaching top-exit"/>
    </vehicle>
    <vehicle id="L0-HDV-171" type="L0-HDV" depart="280.74">
        <route edges="top-approaching bottom-exit"/>
    </vehicle>
    <vehicle id="L0-HDV-172" type="L0-HDV" depart="281.68">
        <route edges="left-approaching right-exit"/>
    </vehicle>
    <vehicle id="L0-HDV-173" type="L0-HDV" depart="282.62">
        <route edges="top-approaching left-exit"/>
    </vehicle>
    <vehicle id="L0-HDV-174" type="L0-HDV" depart="283.56">
        <route edges="top-approaching left-exit"/>
    </vehicle>
    <vehicle id="L0-HDV-176" type="L0-HDV" depart="285.44">
        <route edges="right-approaching bottom-exit"/>
    </vehicle>
    <vehicle id="L0-HDV-177" type="L0-HDV" depart="286.38">
        <route edges="right-approaching left-exit"/>
    </vehicle>
    <vehicle id="L0-HDV-178" type="L0-HDV" depart="287.32">
        <route edges="left-approaching top-exit"/>
    </vehicle>
    <vehicle id="L0-HDV-181" type="L0-HDV" depart="290.14">
        <route edges="left-approaching right-exit"/>
    </vehicle>
    <vehicle id="L0-HDV-182" type="L0-HDV" depart="291.08">
        <route edges="top-approaching left-exit"/>
    </vehicle>
    <vehicle id="L0-HDV-183" type="L0-HDV" depart="292.02">
        <route edges="right-approaching top-exit"/>
    </vehicle>
    <vehicle id="L0-HDV-185" type="L0-HDV" depart="293.90">
        <route edges="top-approaching bottom-exit"/>
    </vehicle>
    <vehicle id="L0-HDV-186" type="L0-HDV" depart="294.84">
        <route edges="left-approaching bottom-exit"/>
    </vehicle>
    <vehicle id="L0-HDV-187" type="L0-HDV" depart="295.78">
        <route edges="bottom-approaching top-exit"/>
    </vehicle>
    <vehicle id="L0-HDV-188" type="L0-HDV" depart="296.72">
        <route edges="left-approaching bottom-exit"/>
    </vehicle>
    <vehicle id="L0-HDV-189" type="L0-HDV" depart="297.66">
        <route edges="bottom-approaching right-exit"/>
    </vehicle>
    <vehicle id="L0-HDV-190" type="L0-HDV" depart="298.60">
        <route edges="top-approaching left-exit"/>
    </vehicle>
    <vehicle id="L0-HDV-191" type="L0-HDV" depart="299.54">
        <route edges="top-approaching left-exit"/>
    </vehicle>
    <vehicle id="L0-HDV-192" type="L0-HDV" depart="300.48">
        <route edges="left-approaching right-exit"/>
    </vehicle>
    <vehicle id="L0-HDV-193" type="L0-HDV" depart="301.42">
        <route edges="top-approaching right-exit"/>
    </vehicle>
    <vehicle id="L0-HDV-194" type="L0-HDV" depart="302.36">
        <route edges="top-approaching right-exit"/>
    </vehicle>
    <vehicle id="L0-HDV-195" type="L0-HDV" depart="303.30">
        <route edges="top-approaching bottom-exit"/>
    </vehicle>
    <vehicle id="L0-HDV-196" type="L0-HDV" depart="304.24">
        <route edges="left-approaching right-exit"/>
    </vehicle>
    <vehicle id="L0-HDV-197" type="L0-HDV" depart="305.18">
        <route edges="top-approaching left-exit"/>
    </vehicle>
    <vehicle id="L0-HDV-198" type="L0-HDV" depart="306.12">
        <route edges="right-approaching left-exit"/>
    </vehicle>
    <vehicle id="L0-HDV-199" type="L0-HDV" depart="307.06">
        <route edges="right-approaching top-exit"/>
    </vehicle>
    <vehicle id="L0-HDV-200" type="L0-HDV" depart="308.00">
        <route edges="top-approaching right-exit"/>
    </vehicle>
    <vehicle id="L0-HDV-203" type="L0-HDV" depart="310.82">
        <route edges="bottom-approaching top-exit"/>
    </vehicle>
    <vehicle id="L0-HDV-204" type="L0-HDV" depart="311.76">
        <route edges="top-approaching left-exit"/>
    </vehicle>
    <vehicle id="L0-HDV-205" type="L0-HDV" depart="312.70">
        <route edges="left-approaching top-exit"/>
    </vehicle>
    <vehicle id="L0-HDV-206" type="L0-HDV" depart="313.64">
        <route edges="bottom-approaching right-exit"/>
    </vehicle>
    <vehicle id="L0-HDV-207" type="L0-HDV" depart="314.58">
        <route edges="bottom-approaching left-exit"/>
    </vehicle>
    <vehicle id="L0-HDV-208" type="L0-HDV" depart="315.52">
        <route edges="top-approaching bottom-exit"/>
    </vehicle>
    <vehicle id="L0-HDV-209" type="L0-HDV" depart="316.46">
        <route edges="bottom-approaching left-exit"/>
    </vehicle>
    <vehicle id="L0-HDV-210" type="L0-HDV" depart="317.40">
        <route edges="left-approaching top-exit"/>
    </vehicle>
    <vehicle id="L0-HDV-212" type="L0-HDV" depart="319.28">
        <route edges="bottom-approaching top-exit"/>
    </vehicle>
    <vehicle id="L0-HDV-213" type="L0-HDV" depart="320.22">
        <route edges="left-approaching right-exit"/>
    </vehicle>
    <vehicle id="L0-HDV-214" type="L0-HDV" depart="321.16">
        <route edges="left-approaching bottom-exit"/>
    </vehicle>
    <vehicle id="L0-HDV-215" type="L0-HDV" depart="322.10">
        <route edges="left-approaching bottom-exit"/>
    </vehicle>
    <vehicle id="L0-HDV-216" type="L0-HDV" depart="323.04">
        <route edges="bottom-approaching right-exit"/>
    </vehicle>
    <vehicle id="L0-HDV-217" type="L0-HDV" depart="323.98">
        <route edges="right-approaching bottom-exit"/>
    </vehicle>
    <vehicle id="L0-HDV-219" type="L0-HDV" depart="325.86">
        <route edges="left-approaching right-exit"/>
    </vehicle>
    <vehicle id="L0-HDV-220" type="L0-HDV" depart="326.80">
        <route edges="left-approaching top-exit"/>
    </vehicle>
    <vehicle id="L0-HDV-221" type="L0-HDV" depart="327.74">
        <route edges="right-approaching left-exit"/>
    </vehicle>
    <vehicle id="L0-HDV-222" type="L0-HDV" depart="328.68">
        <route edges="right-approaching left-exit"/>
    </vehicle>
    <vehicle id="L0-HDV-223" type="L0-HDV" depart="329.62">
        <route edges="bottom-approaching right-exit"/>
    </vehicle>
    <vehicle id="L0-HDV-225" type="L0-HDV" depart="331.50">
        <route edges="bottom-approaching top-exit"/>
    </vehicle>
    <vehicle id="L0-HDV-227" type="L0-HDV" depart="333.38">
        <route edges="top-approaching right-exit"/>
    </vehicle>
    <vehicle id="L0-HDV-228" type="L0-HDV" depart="334.32">
        <route edges="top-approaching left-exit"/>
    </vehicle>
    <vehicle id="L0-HDV-229" type="L0-HDV" depart="335.26">
        <route edges="right-approaching bottom-exit"/>
    </vehicle>
    <vehicle id="L0-HDV-230" type="L0-HDV" depart="336.20">
        <route edges="right-approaching left-exit"/>
    </vehicle>
    <vehicle id="L0-HDV-231" type="L0-HDV" depart="337.14">
        <route edges="right-approaching left-exit"/>
    </vehicle>
    <vehicle id="L0-HDV-232" type="L0-HDV" depart="338.08">
        <route edges="right-approaching bottom-exit"/>
    </vehicle>
    <vehicle id="L0-HDV-233" type="L0-HDV" depart="339.02">
        <route edges="bottom-approaching top-exit"/>
    </vehicle>
    <vehicle id="L0-HDV-234" type="L0-HDV" depart="339.96">
        <route edges="left-approaching top-exit"/>
    </vehicle>
    <vehicle id="L0-HDV-235" type="L0-HDV" depart="340.90">
        <route edges="top-approaching right-exit"/>
    </vehicle>
    <vehicle id="L0-HDV-237" type="L0-HDV" depart="342.78">
        <route edges="bottom-approaching top-exit"/>
    </vehicle>
    <vehicle id="L0-HDV-238" type="L0-HDV" depart="343.72">
        <route edges="top-approaching right-exit"/>
    </vehicle>
    <vehicle id="L0-HDV-239" type="L0-HDV" depart="344.66">
        <route edges="right-approaching left-exit"/>
    </vehicle>
    <vehicle id="L0-HDV-240" type="L0-HDV" depart="345.60">
        <route edges="left-approaching bottom-exit"/>
    </vehicle>
    <vehicle id="L0-HDV-243" type="L0-HDV" depart="348.42">
        <route edges="left-approaching bottom-exit"/>
    </vehicle>
    <vehicle id="L0-HDV-245" type="L0-HDV" depart="350.30">
        <route edges="bottom-approaching left-exit"/>
    </vehicle>
    <vehicle id="L0-HDV-246" type="L0-HDV" depart="351.24">
        <route edges="right-approaching bottom-exit"/>
    </vehicle>
    <vehicle id="L0-HDV-248" type="L0-HDV" depart="353.12">
        <route edges="right-approaching bottom-exit"/>
    </vehicle>
    <vehicle id="L0-HDV-249" type="L0-HDV" depart="354.06">
        <route edges="bottom-approaching left-exit"/>
    </vehicle>
    <vehicle id="L0-HDV-250" type="L0-HDV" depart="355.00">
        <route edges="bottom-approaching left-exit"/>
    </vehicle>
    <vehicle id="L0-HDV-251" type="L0-HDV" depart="355.94">
        <route edges="bottom-approaching top-exit"/>
    </vehicle>
    <vehicle id="L0-HDV-252" type="L0-HDV" depart="356.88">
        <route edges="top-approaching bottom-exit"/>
    </vehicle>
    <vehicle id="L0-HDV-253" type="L0-HDV" depart="357.82">
        <route edges="top-approaching left-exit"/>
    </vehicle>
    <vehicle id="L0-HDV-254" type="L0-HDV" depart="358.76">
        <route edges="bottom-approaching right-exit"/>
    </vehicle>
    <vehicle id="L0-HDV-255" type="L0-HDV" depart="359.70">
        <route edges="top-approaching bottom-exit"/>
    </vehicle>
    <vehicle id="L0-HDV-256" type="L0-HDV" depart="360.64">
        <route edges="bottom-approaching left-exit"/>
    </vehicle>
    <vehicle id="L0-HDV-257" type="L0-HDV" depart="361.58">
        <route edges="bottom-approaching right-exit"/>
    </vehicle>
    <vehicle id="L0-HDV-258" type="L0-HDV" depart="362.52">
        <route edges="top-approaching bottom-exit"/>
    </vehicle>
    <vehicle id="L0-HDV-259" type="L0-HDV" depart="363.46">
        <route edges="bottom-approaching left-exit"/>
    </vehicle>
    <vehicle id="L0-HDV-260" type="L0-HDV" depart="364.40">
        <route edges="top-approaching bottom-exit"/>
    </vehicle>
    <vehicle id="L0-HDV-261" type="L0-HDV" depart="365.34">
        <route edges="top-approaching left-exit"/>
    </vehicle>
    <vehicle id="L0-HDV-264" type="L0-HDV" depart="368.16">
        <route edges="right-approaching bottom-exit"/>
    </vehicle>
    <vehicle id="L0-HDV-265" type="L0-HDV" depart="369.10">
        <route edges="top-approaching bottom-exit"/>
    </vehicle>
    <vehicle id="L0-HDV-266" type="L0-HDV" depart="370.04">
        <route edges="left-approaching bottom-exit"/>
    </vehicle>
    <vehicle id="L0-HDV-268" type="L0-HDV" depart="371.92">
        <route edges="top-approaching left-exit"/>
    </vehicle>
    <vehicle id="L0-HDV-269" type="L0-HDV" depart="372.86">
        <route edges="left-approaching right-exit"/>
    </vehicle>
    <vehicle id="L0-HDV-273" type="L0-HDV" depart="376.62">
        <route edges="bottom-approaching left-exit"/>
    </vehicle>
    <vehicle id="L0-HDV-274" type="L0-HDV" depart="377.56">
        <route edges="left-approaching right-exit"/>
    </vehicle>
    <vehicle id="L0-HDV-275" type="L0-HDV" depart="378.50">
        <route edges="bottom-approaching left-exit"/>
    </vehicle>
    <vehicle id="L0-HDV-276" type="L0-HDV" depart="379.44">
        <route edges="right-approaching bottom-exit"/>
    </vehicle>
    <vehicle id="L0-HDV-278" type="L0-HDV" depart="381.32">
        <route edges="top-approaching bottom-exit"/>
    </vehicle>
    <vehicle id="L0-HDV-280" type="L0-HDV" depart="383.20">
        <route edges="right-approaching left-exit"/>
    </vehicle>
    <vehicle id="L0-HDV-281" type="L0-HDV" depart="384.14">
        <route edges="bottom-approaching left-exit"/>
    </vehicle>
    <vehicle id="L0-HDV-282" type="L0-HDV" depart="385.08">
        <route edges="left-approaching top-exit"/>
    </vehicle>
    <vehicle id="L0-HDV-283" type="L0-HDV" depart="386.02">
        <route edges="top-approaching left-exit"/>
    </vehicle>
    <vehicle id="L0-HDV-284" type="L0-HDV" depart="386.96">
        <route edges="left-approaching right-exit"/>
    </vehicle>
    <vehicle id="L0-HDV-285" type="L0-HDV" depart="387.90">
        <route edges="top-approaching left-exit"/>
    </vehicle>
    <vehicle id="L0-HDV-286" type="L0-HDV" depart="388.84">
        <route edges="left-approaching right-exit"/>
    </vehicle>
    <vehicle id="L0-HDV-288" type="L0-HDV" depart="390.72">
        <route edges="left-approaching top-exit"/>
    </vehicle>
    <vehicle id="L0-HDV-289" type="L0-HDV" depart="391.66">
        <route edges="bottom-approaching left-exit"/>
    </vehicle>
    <vehicle id="L0-HDV-290" type="L0-HDV" depart="392.60">
        <route edges="right-approaching left-exit"/>
    </vehicle>
    <vehicle id="L0-HDV-293" type="L0-HDV" depart="395.42">
        <route edges="bottom-approaching left-exit"/>
    </vehicle>
    <vehicle id="L0-HDV-295" type="L0-HDV" depart="397.30">
        <route edges="left-approaching bottom-exit"/>
    </vehicle>
    <vehicle id="L0-HDV-296" type="L0-HDV" depart="398.24">
        <route edges="right-approaching left-exit"/>
    </vehicle>
    <vehicle id="L0-HDV-298" type="L0-HDV" depart="400.12">
        <route edges="left-approaching right-exit"/>
    </vehicle>
    <vehicle id="L0-HDV-299" type="L0-HDV" depart="401.06">
        <route edges="left-approaching top-exit"/>
    </vehicle>
    <vehicle id="L0-HDV-300" type="L0-HDV" depart="402.00">
        <route edges="bottom-approaching top-exit"/>
    </vehicle>
    <vehicle id="L0-HDV-301" type="L0-HDV" depart="402.94">
        <route edges="bottom-approaching left-exit"/>
    </vehicle>
    <vehicle id="L0-HDV-303" type="L0-HDV" depart="404.82">
        <route edges="left-approaching bottom-exit"/>
    </vehicle>
    <vehicle id="L0-HDV-305" type="L0-HDV" depart="406.70">
        <route edges="right-approaching top-exit"/>
    </vehicle>
    <vehicle id="L0-HDV-306" type="L0-HDV" depart="407.64">
        <route edges="right-approaching bottom-exit"/>
    </vehicle>
    <vehicle id="L0-HDV-307" type="L0-HDV" depart="408.58">
        <route edges="right-approaching left-exit"/>
    </vehicle>
    <vehicle id="L0-HDV-309" type="L0-HDV" depart="410.46">
        <route edges="left-approaching top-exit"/>
    </vehicle>
    <vehicle id="L0-HDV-310" type="L0-HDV" depart="411.40">
        <route edges="bottom-approaching left-exit"/>
    </vehicle>
    <vehicle id="L0-HDV-312" type="L0-HDV" depart="413.28">
        <route edges="left-approaching right-exit"/>
    </vehicle>