<?xml version="1.0" encoding="UTF-8"?>

<!-- generated on 03/04/21 22:15:04 by Eclipse SUMO duarouter Version 1.8.0
<configuration xmlns:xsi="http://www.w3.org/2001/XMLSchema-instance" xsi:noNamespaceSchemaLocation="http://sumo.dlr.de/xsd/duarouterConfiguration.xsd">

    <input>
        <net-file value="Collision/CollisionIntersection.net.xml"/>
        <route-files value="trips.trips.xml"/>
    </input>

    <output>
        <output-file value="Collision/BaselineHDV/Route-Files/L0-HDV-Route.rou.xml"/>
        <alternatives-output value="Collision/BaselineHDV/Route-Files/L0-HDV-Route.rou.alt.xml"/>
    </output>

    <time>
        <begin value="120"/>
        <end value="3600"/>
    </time>

    <report>
        <no-warnings value="true"/>
        <ignore-errors value="true"/>
        <no-step-log value="true"/>
    </report>

</configuration>
-->

<routes xmlns:xsi="http://www.w3.org/2001/XMLSchema-instance" xsi:noNamespaceSchemaLocation="http://sumo.dlr.de/xsd/routes_file.xsd">
    <vehicle id="L0-HDV-0" type="L0-HDV" depart="120.00">
        <route edges="left-approaching top-exit"/>
    </vehicle>
    <vehicle id="L0-HDV-1" type="L0-HDV" depart="121.86">
        <route edges="bottom-approaching right-exit"/>
    </vehicle>
    <vehicle id="L0-HDV-2" type="L0-HDV" depart="123.72">
        <route edges="bottom-approaching left-exit"/>
    </vehicle>
    <vehicle id="L0-HDV-3" type="L0-HDV" depart="125.58">
        <route edges="top-approaching left-exit"/>
    </vehicle>
    <vehicle id="L0-HDV-4" type="L0-HDV" depart="127.44">
        <route edges="right-approaching left-exit"/>
    </vehicle>
    <vehicle id="L0-HDV-6" type="L0-HDV" depart="131.16">
        <route edges="bottom-approaching top-exit"/>
    </vehicle>
    <vehicle id="L0-HDV-7" type="L0-HDV" depart="133.02">
        <route edges="bottom-approaching left-exit"/>
    </vehicle>
    <vehicle id="L0-HDV-8" type="L0-HDV" depart="134.88">
        <route edges="bottom-approaching left-exit"/>
    </vehicle>
    <vehicle id="L0-HDV-9" type="L0-HDV" depart="136.74">
        <route edges="left-approaching top-exit"/>
    </vehicle>
    <vehicle id="L0-HDV-10" type="L0-HDV" depart="138.60">
        <route edges="left-approaching bottom-exit"/>
    </vehicle>
    <vehicle id="L0-HDV-11" type="L0-HDV" depart="140.46">
        <route edges="left-approaching top-exit"/>
    </vehicle>
    <vehicle id="L0-HDV-12" type="L0-HDV" depart="142.32">
        <route edges="bottom-approaching right-exit"/>
    </vehicle>
    <vehicle id="L0-HDV-13" type="L0-HDV" depart="144.18">
        <route edges="left-approaching right-exit"/>
    </vehicle>
    <vehicle id="L0-HDV-14" type="L0-HDV" depart="146.04">
        <route edges="left-approaching right-exit"/>
    </vehicle>
    <vehicle id="L0-HDV-15" type="L0-HDV" depart="147.90">
        <route edges="left-approaching right-exit"/>
    </vehicle>
    <vehicle id="L0-HDV-16" type="L0-HDV" depart="149.76">
        <route edges="top-approaching left-exit"/>
    </vehicle>
    <vehicle id="L0-HDV-18" type="L0-HDV" depart="153.48">
        <route edges="top-approaching left-exit"/>
    </vehicle>
    <vehicle id="L0-HDV-19" type="L0-HDV" depart="155.34">
        <route edges="bottom-approaching top-exit"/>
    </vehicle>
    <vehicle id="L0-HDV-20" type="L0-HDV" depart="157.20">
        <route edges="left-approaching right-exit"/>
    </vehicle>
    <vehicle id="L0-HDV-21" type="L0-HDV" depart="159.06">
        <route edges="top-approaching left-exit"/>
    </vehicle>
    <vehicle id="L0-HDV-22" type="L0-HDV" depart="160.92">
        <route edges="left-approaching top-exit"/>
    </vehicle>
    <vehicle id="L0-HDV-23" type="L0-HDV" depart="162.78">
        <route edges="bottom-approaching right-exit"/>
    </vehicle>
    <vehicle id="L0-HDV-24" type="L0-HDV" depart="164.64">
        <route edges="bottom-approaching right-exit"/>
    </vehicle>
    <vehicle id="L0-HDV-25" type="L0-HDV" depart="166.50">
        <route edges="right-approaching top-exit"/>
    </vehicle>
    <vehicle id="L0-HDV-26" type="L0-HDV" depart="168.36">
        <route edges="top-approaching left-exit"/>
    </vehicle>
    <vehicle id="L0-HDV-29" type="L0-HDV" depart="173.94">
        <route edges="bottom-approaching top-exit"/>
    </vehicle>
    <vehicle id="L0-HDV-30" type="L0-HDV" depart="175.80">
        <route edges="left-approaching right-exit"/>
    </vehicle>
    <vehicle id="L0-HDV-32" type="L0-HDV" depart="179.52">
        <route edges="bottom-approaching left-exit"/>
    </vehicle>
    <vehicle id="L0-HDV-34" type="L0-HDV" depart="183.24">
        <route edges="left-approaching top-exit"/>
    </vehicle>
    <vehicle id="L0-HDV-35" type="L0-HDV" depart="185.10">
        <route edges="top-approaching bottom-exit"/>
    </vehicle>
    <vehicle id="L0-HDV-36" type="L0-HDV" depart="186.96">
        <route edges="left-approaching bottom-exit"/>
    </vehicle>
    <vehicle id="L0-HDV-37" type="L0-HDV" depart="188.82">
        <route edges="right-approaching top-exit"/>
    </vehicle>
    <vehicle id="L0-HDV-38" type="L0-HDV" depart="190.68">
        <route edges="bottom-approaching right-exit"/>
    </vehicle>
    <vehicle id="L0-HDV-39" type="L0-HDV" depart="192.54">
        <route edges="left-approaching bottom-exit"/>
    </vehicle>
    <vehicle id="L0-HDV-40" type="L0-HDV" depart="194.40">
        <route edges="right-approaching left-exit"/>
    </vehicle>
    <vehicle id="L0-HDV-41" type="L0-HDV" depart="196.26">
        <route edges="bottom-approaching left-exit"/>
    </vehicle>
    <vehicle id="L0-HDV-44" type="L0-HDV" depart="201.84">
        <route edges="right-approaching left-exit"/>
    </vehicle>
    <vehicle id="L0-HDV-46" type="L0-HDV" depart="205.56">
        <route edges="bottom-approaching left-exit"/>
    </vehicle>
    <vehicle id="L0-HDV-47" type="L0-HDV" depart="207.42">
        <route edges="left-approaching top-exit"/>
    </vehicle>
    <vehicle id="L0-HDV-48" type="L0-HDV" depart="209.28">
        <route edges="left-approaching right-exit"/>
    </vehicle>
    <vehicle id="L0-HDV-49" type="L0-HDV" depart="211.14">
        <route edges="top-approaching bottom-exit"/>
    </vehicle>
    <vehicle id="L0-HDV-52" type="L0-HDV" depart="216.72">
        <route edges="right-approaching left-exit"/>
    </vehicle>
    <vehicle id="L0-HDV-53" type="L0-HDV" depart="218.58">
        <route edges="top-approaching bottom-exit"/>
    </vehicle>
    <vehicle id="L0-HDV-54" type="L0-HDV" depart="220.44">
        <route edges="top-approaching left-exit"/>
    </vehicle>
    <vehicle id="L0-HDV-55" type="L0-HDV" depart="222.30">
        <route edges="top-approaching bottom-exit"/>
    </vehicle>
    <vehicle id="L0-HDV-56" type="L0-HDV" depart="224.16">
        <route edges="top-approaching right-exit"/>
    </vehicle>
    <vehicle id="L0-HDV-57" type="L0-HDV" depart="226.02">
        <route edges="top-approaching left-exit"/>
    </vehicle>
    <vehicle id="L0-HDV-58" type="L0-HDV" depart="227.88">
        <route edges="bottom-approaching top-exit"/>
    </vehicle>
    <vehicle id="L0-HDV-59" type="L0-HDV" depart="229.74">
        <route edges="left-approaching bottom-exit"/>
    </vehicle>
    <vehicle id="L0-HDV-60" type="L0-HDV" depart="231.60">
        <route edges="right-approaching left-exit"/>
    </vehicle>
    <vehicle id="L0-HDV-61" type="L0-HDV" depart="233.46">
        <route edges="left-approaching bottom-exit"/>
    </vehicle>
    <vehicle id="L0-HDV-62" type="L0-HDV" depart="235.32">
        <route edges="bottom-approaching left-exit"/>
    </vehicle>
    <vehicle id="L0-HDV-63" type="L0-HDV" depart="237.18">
        <route edges="left-approaching bottom-exit"/>
    </vehicle>
    <vehicle id="L0-HDV-64" type="L0-HDV" depart="239.04">
        <route edges="left-approaching right-exit"/>
    </vehicle>
    <vehicle id="L0-HDV-65" type="L0-HDV" depart="240.90">
        <route edges="right-approaching left-exit"/>
    </vehicle>
    <vehicle id="L0-HDV-67" type="L0-HDV" depart="244.62">
        <route edges="left-approaching bottom-exit"/>
    </vehicle>
    <vehicle id="L0-HDV-68" type="L0-HDV" depart="246.48">
        <route edges="left-approaching bottom-exit"/>
    </vehicle>
    <vehicle id="L0-HDV-70" type="L0-HDV" depart="250.20">
        <route edges="right-approaching bottom-exit"/>
    </vehicle>
    <vehicle id="L0-HDV-72" type="L0-HDV" depart="253.92">
        <route edges="bottom-approaching top-exit"/>
    </vehicle>
    <vehicle id="L0-HDV-73" type="L0-HDV" depart="255.78">
        <route edges="right-approaching left-exit"/>
    </vehicle>
    <vehicle id="L0-HDV-74" type="L0-HDV" depart="257.64">
        <route edges="right-approaching bottom-exit"/>
    </vehicle>
    <vehicle id="L0-HDV-77" type="L0-HDV" depart="263.22">
        <route edges="bottom-approaching right-exit"/>
    </vehicle>
    <vehicle id="L0-HDV-78" type="L0-HDV" depart="265.08">
        <route edges="top-approaching right-exit"/>
    </vehicle>
    <vehicle id="L0-HDV-81" type="L0-HDV" depart="270.66">
        <route edges="left-approaching top-exit"/>
    </vehicle>
    <vehicle id="L0-HDV-82" type="L0-HDV" depart="272.52">
        <route edges="left-approaching top-exit"/>
    </vehicle>
    <vehicle id="L0-HDV-83" type="L0-HDV" depart="274.38">
        <route edges="top-approaching left-exit"/>
    </vehicle>
    <vehicle id="L0-HDV-84" type="L0-HDV" depart="276.24">
        <route edges="right-approaching top-exit"/>
    </vehicle>
    <vehicle id="L0-HDV-85" type="L0-HDV" depart="278.10">
        <route edges="right-approaching left-exit"/>
    </vehicle>
    <vehicle id="L0-HDV-86" type="L0-HDV" depart="279.96">
        <route edges="top-approaching bottom-exit"/>
    </vehicle>
    <vehicle id="L0-HDV-87" type="L0-HDV" depart="281.82">
        <route edges="left-approaching top-exit"/>
    </vehicle>
    <vehicle id="L0-HDV-88" type="L0-HDV" depart="283.68">
        <route edges="top-approaching left-exit"/>
    </vehicle>
    <vehicle id="L0-HDV-89" type="L0-HDV" depart="285.54">
        <route edges="left-approaching right-exit"/>
    </vehicle>
    <vehicle id="L0-HDV-90" type="L0-HDV" depart="287.40">
        <route edges="top-approaching right-exit"/>
    </vehicle>
    <vehicle id="L0-HDV-91" type="L0-HDV" depart="289.26">
        <route edges="top-approaching right-exit"/>
    </vehicle>
    <vehicle id="L0-HDV-92" type="L0-HDV" depart="291.12">
        <route edges="top-approaching right-exit"/>
    </vehicle>
    <vehicle id="L0-HDV-95" type="L0-HDV" depart="296.70">
        <route edges="top-approaching left-exit"/>
    </vehicle>
    <vehicle id="L0-HDV-96" type="L0-HDV" depart="298.56">
        <route edges="bottom-approaching right-exit"/>
    </vehicle>
    <vehicle id="L0-HDV-98" type="L0-HDV" depart="302.28">
        <route edges="bottom-approaching top-exit"/>
    </vehicle>
    <vehicle id="L0-HDV-100" type="L0-HDV" depart="306.00">
        <route edges="top-approaching left-exit"/>
    </vehicle>
    <vehicle id="L0-HDV-101" type="L0-HDV" depart="307.86">
        <route edges="left-approaching top-exit"/>
    </vehicle>
    <vehicle id="L0-HDV-103" type="L0-HDV" depart="311.58">
        <route edges="top-approaching right-exit"/>
    </vehicle>
    <vehicle id="L0-HDV-104" type="L0-HDV" depart="313.44">
        <route edges="right-approaching left-exit"/>
    </vehicle>
    <vehicle id="L0-HDV-105" type="L0-HDV" depart="315.30">
        <route edges="top-approaching right-exit"/>
    </vehicle>
    <vehicle id="L0-HDV-106" type="L0-HDV" depart="317.16">
        <route edges="top-approaching left-exit"/>
    </vehicle>
    <vehicle id="L0-HDV-107" type="L0-HDV" depart="319.02">
        <route edges="right-approaching top-exit"/>
    </vehicle>
    <vehicle id="L0-HDV-108" type="L0-HDV" depart="320.88">
        <route edges="left-approaching right-exit"/>
    </vehicle>
    <vehicle id="L0-HDV-109" type="L0-HDV" depart="322.74">
        <route edges="right-approaching top-exit"/>
    </vehicle>
    <vehicle id="L0-HDV-110" type="L0-HDV" depart="324.60">
        <route edges="top-approaching right-exit"/>
    </vehicle>
    <vehicle id="L0-HDV-111" type="L0-HDV" depart="326.46">
        <route edges="bottom-approaching right-exit"/>
    </vehicle>
    <vehicle id="L0-HDV-112" type="L0-HDV" depart="328.32">
        <route edges="right-approaching bottom-exit"/>
    </vehicle>
    <vehicle id="L0-HDV-113" type="L0-HDV" depart="330.18">
        <route edges="left-approaching top-exit"/>
    </vehicle>
    <vehicle id="L0-HDV-115" type="L0-HDV" depart="333.90">
        <route edges="bottom-approaching right-exit"/>
    </vehicle>
    <vehicle id="L0-HDV-116" type="L0-HDV" depart="335.76">
        <route edges="top-approaching right-exit"/>
    </vehicle>
    <vehicle id="L0-HDV-117" type="L0-HDV" depart="337.62">
        <route edges="left-approaching bottom-exit"/>
    </vehicle>
    <vehicle id="L0-HDV-119" type="L0-HDV" depart="341.34">
        <route edges="right-approaching left-exit"/>
    </vehicle>
    <vehicle id="L0-HDV-124" type="L0-HDV" depart="350.64">
        <route edges="left-approaching bottom-exit"/>
    </vehicle>
    <vehicle id="L0-HDV-125" type="L0-HDV" depart="352.50">
        <route edges="right-approaching left-exit"/>
    </vehicle>
    <vehicle id="L0-HDV-126" type="L0-HDV" depart="354.36">
        <route edges="bottom-approaching left-exit"/>
    </vehicle>
    <vehicle id="L0-HDV-128" type="L0-HDV" depart="358.08">
        <route edges="right-approaching bottom-exit"/>
    </vehicle>
    <vehicle id="L0-HDV-130" type="L0-HDV" depart="361.80">
        <route edges="bottom-approaching right-exit"/>
    </vehicle>
    <vehicle id="L0-HDV-132" type="L0-HDV" depart="365.52">
        <route edges="left-approaching right-exit"/>
    </vehicle>
    <vehicle id="L0-HDV-133" type="L0-HDV" depart="367.38">
        <route edges="top-approaching left-exit"/>
    </vehicle>
    <vehicle id="L0-HDV-134" type="L0-HDV" depart="369.24">
        <route edges="left-approaching top-exit"/>
    </vehicle>
    <vehicle id="L0-HDV-135" type="L0-HDV" depart="371.10">
        <route edges="right-approaching left-exit"/>
    </vehicle>
    <vehicle id="L0-HDV-136" type="L0-HDV" depart="372.96">
        <route edges="left-approaching top-exit"/>
    </vehicle>
    <vehicle id="L0-HDV-138" type="L0-HDV" depart="376.68">
        <route edges="bottom-approaching left-exit"/>
    </vehicle>
    <vehicle id="L0-HDV-139" type="L0-HDV" depart="378.54">
        <route edges="left-approaching bottom-exit"/>
    </vehicle>
    <vehicle id="L0-HDV-140" type="L0-HDV" depart="380.40">
        <route edges="right-approaching bottom-exit"/>
    </vehicle>
    <vehicle id="L0-HDV-141" type="L0-HDV" depart="382.26">
        <route edges="top-approaching right-exit"/>
    </vehicle>
    <vehicle id="L0-HDV-142" type="L0-HDV" depart="384.12">
        <route edges="right-approaching left-exit"/>
    </vehicle>
    <vehicle id="L0-HDV-143" type="L0-HDV" depart="385.98">
        <route edges="top-approaching left-exit"/>
    </vehicle>
    <vehicle id="L0-HDV-145" type="L0-HDV" depart="389.70">
        <route edges="right-approaching top-exit"/>
    </vehicle>
    <vehicle id="L0-HDV-147" type="L0-HDV" depart="393.42">
        <route edges="top-approaching left-exit"/>
    </vehicle>
    <vehicle id="L0-HDV-148" type="L0-HDV" depart="395.28">
        <route edges="left-approaching right-exit"/>
    </vehicle>
    <vehicle id="L0-HDV-149" type="L0-HDV" depart="397.14">
        <route edges="left-approaching bottom-exit"/>
    </vehicle>
    <vehicle id="L0-HDV-150" type="L0-HDV" depart="399.00">
        <route edges="top-approaching left-exit"/>
    </vehicle>
    <vehicle id="L0-HDV-151" type="L0-HDV" depart="400.86">
        <route edges="top-approaching left-exit"/>
    </vehicle>
    <vehicle id="L0-HDV-152" type="L0-HDV" depart="402.72">
        <route edges="top-approaching left-exit"/>
    </vehicle>
    <vehicle id="L0-HDV-154" type="L0-HDV" depart="406.44">
        <route edges="right-approaching top-exit"/>
    </vehicle>
    <vehicle id="L0-HDV-155" type="L0-HDV" depart="408.30">
        <route edges="right-approaching bottom-exit"/>
    </vehicle>
    <vehicle id="L0-HDV-156" type="L0-HDV" depart="410.16">
        <route edges="left-approaching bottom-exit"/>
    </vehicle>
    <vehicle id="L0-HDV-157" type="L0-HDV" depart="412.02">
        <route edges="left-approaching top-exit"/>
    </vehicle>
    <vehicle id="L0-HDV-158" type="L0-HDV" depart="413.88">
        <route edges="left-approaching right-exit"/>
    </vehicle>
    <vehicle id="L0-HDV-159" type="L0-HDV" depart="415.74">
        <route edges="right-approaching bottom-exit"/>
    </vehicle>
    <vehicle id="L0-HDV-160" type="L0-HDV" depart="417.60">
        <route edges="right-approaching bottom-exit"/>
    </vehicle>
    <vehicle id="L0-HDV-161" type="L0-HDV" depart="419.46">
        <route edges="bottom-approaching left-exit"/>
    </vehicle>
    <vehicle id="L0-HDV-162" type="L0-HDV" depart="421.32">
        <route edges="bottom-approaching top-exit"/>
    </vehicle>
    <vehicle id="L0-HDV-163" type="L0-HDV" depart="423.18">
        <route edges="left-approaching right-exit"/>
    </vehicle>
    <vehicle id="L0-HDV-164" type="L0-HDV" depart="425.04">
        <route edges="top-approaching bottom-exit"/>
    </vehicle>
    <vehicle id="L0-HDV-165" type="L0-HDV" depart="426.90">
        <route edges="top-approaching bottom-exit"/>
    </vehicle>
    <vehicle id="L0-HDV-167" type="L0-HDV" depart="430.62">
        <route edges="top-approaching left-exit"/>
    </vehicle>
    <vehicle id="L0-HDV-168" type="L0-HDV" depart="432.48">
        <route edges="top-approaching right-exit"/>
    </vehicle>
    <vehicle id="L0-HDV-169" type="L0-HDV" depart="434.34">
        <route edges="left-approaching bottom-exit"/>
    </vehicle>
    <vehicle id="L0-HDV-172" type="L0-HDV" depart="439.92">
        <route edges="top-approaching left-exit"/>
    </vehicle>
    <vehicle id="L0-HDV-173" type="L0-HDV" depart="441.78">
        <route edges="right-approaching bottom-exit"/>
    </vehicle>
    <vehicle id="L0-HDV-174" type="L0-HDV" depart="443.64">
        <route edges="bottom-approaching right-exit"/>
    </vehicle>
    <vehicle id="L0-HDV-175" type="L0-HDV" depart="445.50">
        <route edges="top-approaching left-exit"/>
    </vehicle>
    <vehicle id="L0-HDV-176" type="L0-HDV" depart="447.36">
        <route edges="bottom-approaching left-exit"/>
    </vehicle>
    <vehicle id="L0-HDV-182" type="L0-HDV" depart="458.52">
        <route edges="top-approaching left-exit"/>
    </vehicle>
    <vehicle id="L0-HDV-183" type="L0-HDV" depart="460.38">
        <route edges="top-approaching left-exit"/>
    </vehicle>
    <vehicle id="L0-HDV-184" type="L0-HDV" depart="462.24">
        <route edges="right-approaching left-exit"/>
    </vehicle>
    <vehicle id="L0-HDV-185" type="L0-HDV" depart="464.10">
        <route edges="right-approaching left-exit"/>
    </vehicle>
    <vehicle id="L0-HDV-186" type="L0-HDV" depart="465.96">
        <route edges="left-approaching right-exit"/>
    </vehicle>
    <vehicle id="L0-HDV-187" type="L0-HDV" depart="467.82">
        <route edges="left-approaching right-exit"/>
    </vehicle>
    <vehicle id="L0-HDV-190" type="L0-HDV" depart="473.40">
        <route edges="right-approaching bottom-exit"/>
    </vehicle>
    <vehicle id="L0-HDV-191" type="L0-HDV" depart="475.26">
        <route edges="bottom-approaching top-exit"/>
    </vehicle>
    <vehicle id="L0-HDV-192" type="L0-HDV" depart="477.12">
        <route edges="bottom-approaching top-exit"/>
    </vehicle>
    <vehicle id="L0-HDV-193" type="L0-HDV" depart="478.98">
        <route edges="right-approaching left-exit"/>
    </vehicle>
    <vehicle id="L0-HDV-194" type="L0-HDV" depart="480.84">
        <route edges="right-approaching left-exit"/>
    </vehicle>
    <vehicle id="L0-HDV-195" type="L0-HDV" depart="482.70">
        <route edges="top-approaching bottom-exit"/>
    </vehicle>
    <vehicle id="L0-HDV-197" type="L0-HDV" depart="486.42">
        <route edges="right-approaching left-exit"/>
    </vehicle>
    <vehicle id="L0-HDV-198" type="L0-HDV" depart="488.28">
        <route edges="left-approaching top-exit"/>
    </vehicle>
    <vehicle id="L0-HDV-200" type="L0-HDV" depart="492.00">
        <route edges="left-approaching right-exit"/>
    </vehicle>
    <vehicle id="L0-HDV-201" type="L0-HDV" depart="493.86">
        <route edges="bottom-approaching top-exit"/>
    </vehicle>
    <vehicle id="L0-HDV-202" type="L0-HDV" depart="495.72">
        <route edges="left-approaching top-exit"/>
    </vehicle>
    <vehicle id="L0-HDV-203" type="L0-HDV" depart="497.58">
        <route edges="left-approaching top-exit"/>
    </vehicle>
    <vehicle id="L0-HDV-204" type="L0-HDV" depart="499.44">
        <route edges="bottom-approaching top-exit"/>
    </vehicle>
    <vehicle id="L0-HDV-205" type="L0-HDV" depart="501.30">
        <route edges="bottom-approaching left-exit"/>
    </vehicle>
    <vehicle id="L0-HDV-206" type="L0-HDV" depart="503.16">
        <route edges="left-approaching top-exit"/>
    </vehicle>
    <vehicle id="L0-HDV-207" type="L0-HDV" depart="505.02">
        <route edges="right-approaching top-exit"/>
    </vehicle>
    <vehicle id="L0-HDV-208" type="L0-HDV" depart="506.88">
        <route edges="top-approaching left-exit"/>
    </vehicle>
    <vehicle id="L0-HDV-210" type="L0-HDV" depart="510.60">
        <route edges="right-approaching top-exit"/>
    </vehicle>
    <vehicle id="L0-HDV-211" type="L0-HDV" depart="512.46">
        <route edges="right-approaching left-exit"/>
    </vehicle>
    <vehicle id="L0-HDV-213" type="L0-HDV" depart="516.18">
        <route edges="left-approaching right-exit"/>
    </vehicle>
    <vehicle id="L0-HDV-215" type="L0-HDV" depart="519.90">
        <route edges="bottom-approaching left-exit"/>
    </vehicle>
    <vehicle id="L0-HDV-216" type="L0-HDV" depart="521.76">
        <route edges="right-approaching left-exit"/>
    </vehicle>
    <vehicle id="L0-HDV-217" type="L0-HDV" depart="523.62">
        <route edges="left-approaching right-exit"/>
    </vehicle>
    <vehicle id="L0-HDV-219" type="L0-HDV" depart="527.34">
        <route edges="right-approaching left-exit"/>
    </vehicle>
    <vehicle id="L0-HDV-220" type="L0-HDV" depart="529.20">
        <route edges="left-approaching right-exit"/>
    </vehicle>
    <vehicle id="L0-HDV-221" type="L0-HDV" depart="531.06">
        <route edges="right-approaching bottom-exit"/>
    </vehicle>
    <vehicle id="L0-HDV-222" type="L0-HDV" depart="532.92">
        <route edges="top-approaching right-exit"/>
    </vehicle>
    <vehicle id="L0-HDV-223" type="L0-HDV" depart="534.78">
        <route edges="top-approaching right-exit"/>
    </vehicle>
    <vehicle id="L0-HDV-224" type="L0-HDV" depart="536.64">
        <route edges="left-approaching right-exit"/>
    </vehicle>
    <vehicle id="L0-HDV-225" type="L0-HDV" depart="538.50">
        <route edges="left-approaching right-exit"/>
    </vehicle>
    <vehicle id="L0-HDV-226" type="L0-HDV" depart="540.36">
        <route edges="bottom-approaching left-exit"/>
    </vehicle>
    <vehicle id="L0-HDV-227" type="L0-HDV" depart="542.22">
        <route edges="left-approaching top-exit"/>
    </vehicle>
    <vehicle id="L0-HDV-228" type="L0-HDV" depart="544.08">
        <route edges="right-approaching top-exit"/>
    </vehicle>
    <vehicle id="L0-HDV-232" type="L0-HDV" depart="551.52">
        <route edges="top-approaching right-exit"/>
    </vehicle>
    <vehicle id="L0-HDV-233" type="L0-HDV" depart="553.38">
        <route edges="bottom-approaching left-exit"/>
    </vehicle>
    <vehicle id="L0-HDV-234" type="L0-HDV" depart="555.24">
        <route edges="left-approaching right-exit"/>
    </vehicle>
    <vehicle id="L0-HDV-235" type="L0-HDV" depart="557.10">
        <route edges="right-approaching bottom-exit"/>
    </vehicle>
    <vehicle id="L0-HDV-236" type="L0-HDV" depart="558.96">
        <route edges="right-approaching left-exit"/>
    </vehicle>
    <vehicle id="L0-HDV-238" type="L0-HDV" depart="562.68">
        <route edges="top-approaching bottom-exit"/>
    </vehicle>
    <vehicle id="L0-HDV-239" type="L0-HDV" depart="564.54">
        <route edges="left-approaching right-exit"/>
    </vehicle>
    <vehicle id="L0-HDV-241" type="L0-HDV" depart="568.26">
        <route edges="left-approaching right-exit"/>
    </vehicle>
    <vehicle id="L0-HDV-242" type="L0-HDV" depart="570.12">
        <route edges="bottom-approaching left-exit"/>
    </vehicle>
    <vehicle id="L0-HDV-243" type="L0-HDV" depart="571.98">
        <route edges="top-approaching right-exit"/>
    </vehicle>
    <vehicle id="L0-HDV-244" type="L0-HDV" depart="573.84">
        <route edges="left-approaching right-exit"/>
    </vehicle>
    <vehicle id="L0-HDV-247" type="L0-HDV" depart="579.42">
        <route edges="bottom-approaching right-exit"/>
    </vehicle>
    <vehicle id="L0-HDV-248" type="L0-HDV" depart="581.28">
        <route edges="top-approaching right-exit"/>
    </vehicle>
    <vehicle id="L0-HDV-251" type="L0-HDV" depart="586.86">
        <route edges="right-approaching bottom-exit"/>
    </vehicle>
    <vehicle id="L0-HDV-252" type="L0-HDV" depart="588.72">
        <route edges="top-approaching left-exit"/>
    </vehicle>
    <vehicle id="L0-HDV-253" type="L0-HDV" depart="590.58">
        <route edges="left-approaching bottom-exit"/>
    </vehicle>
    <vehicle id="L0-HDV-254" type="L0-HDV" depart="592.44">
        <route edges="right-approaching bottom-exit"/>
    </vehicle>
    <vehicle id="L0-HDV-257" type="L0-HDV" depart="598.02">
        <route edges="bottom-approaching left-exit"/>
    </vehicle>
    <vehicle id="L0-HDV-258" type="L0-HDV" depart="599.88">
        <route edges="top-approaching right-exit"/>
    </vehicle>
    <vehicle id="L0-HDV-261" type="L0-HDV" depart="605.46">
        <route edges="right-approaching top-exit"/>
    </vehicle>
    <vehicle id="L0-HDV-262" type="L0-HDV" depart="607.32">
        <route edges="left-approaching right-exit"/>
    </vehicle>
    <vehicle id="L0-HDV-263" type="L0-HDV" depart="609.18">
        <route edges="right-approaching left-exit"/>
    </vehicle>
    <vehicle id="L0-HDV-266" type="L0-HDV" depart="614.76">
        <route edges="top-approaching bottom-exit"/>
    </vehicle>
    <vehicle id="L0-HDV-267" type="L0-HDV" depart="616.62">
        <route edges="bottom-approaching top-exit"/>
    </vehicle>
    <vehicle id="L0-HDV-268" type="L0-HDV" depart="618.48">
        <route edges="left-approaching right-exit"/>
    </vehicle>
    <vehicle id="L0-HDV-269" type="L0-HDV" depart="620.34">
        <route edges="top-approaching right-exit"/>
    </vehicle>
    <vehicle id="L0-HDV-270" type="L0-HDV" depart="622.20">
        <route edges="left-approaching top-exit"/>
    </vehicle>
    <vehicle id="L0-HDV-271" type="L0-HDV" depart="624.06">
        <route edges="right-approaching left-exit"/>
    </vehicle>
    <vehicle id="L0-HDV-273" type="L0-HDV" depart="627.78">
        <route edges="right-approaching top-exit"/>
    </vehicle>
    <vehicle id="L0-HDV-276" type="L0-HDV" depart="633.36">
        <route edges="left-approaching top-exit"/>
    </vehicle>
    <vehicle id="L0-HDV-277" type="L0-HDV" depart="635.22">
        <route edges="left-approaching right-exit"/>
    </vehicle>
    <vehicle id="L0-HDV-278" type="L0-HDV" depart="637.08">
        <route edges="right-approaching left-exit"/>
    </vehicle>
    <vehicle id="L0-HDV-279" type="L0-HDV" depart="638.94">
        <route edges="right-approaching bottom-exit"/>
    </vehicle>
    <vehicle id="L0-HDV-280" type="L0-HDV" depart="640.80">
        <route edges="left-approaching right-exit"/>
    </vehicle>
    <vehicle id="L0-HDV-281" type="L0-HDV" depart="642.66">
        <route edges="right-approaching left-exit"/>
    </vehicle>
    <vehicle id="L0-HDV-285" type="L0-HDV" depart="650.10">
        <route edges="right-approaching left-exit"/>
    </vehicle>
    <vehicle id="L0-HDV-286" type="L0-HDV" depart="651.96">
        <route edges="right-approaching bottom-exit"/>
    </vehicle>
    <vehicle id="L0-HDV-287" type="L0-HDV" depart="653.82">
        <route edges="left-approaching bottom-exit"/>
    </vehicle>
    <vehicle id="L0-HDV-293" type="L0-HDV" depart="664.98">
        <route edges="bottom-approaching top-exit"/>
    </vehicle>
    <vehicle id="L0-HDV-296" type="L0-HDV" depart="670.56">
        <route edges="left-approaching right-exit"/>
    </vehicle>
    <vehicle id="L0-HDV-298" type="L0-HDV" depart="674.28">
        <route edges="left-approaching right-exit"/>
    </vehicle>
    <vehicle id="L0-HDV-299" type="L0-HDV" depart="676.14">
        <route edges="left-approaching bottom-exit"/>
    </vehicle>
    <vehicle id="L0-HDV-302" type="L0-HDV" depart="681.72">
        <route edges="left-approaching right-exit"/>
    </vehicle>
    <vehicle id="L0-HDV-303" type="L0-HDV" depart="683.58">
        <route edges="top-approaching bottom-exit"/>
    </vehicle>
    <vehicle id="L0-HDV-304" type="L0-HDV" depart="685.44">
        <route edges="top-approaching bottom-exit"/>
    </vehicle>
    <vehicle id="L0-HDV-306" type="L0-HDV" depart="689.16">
        <route edges="left-approaching top-exit"/>
    </vehicle>
    <vehicle id="L0-HDV-310" type="L0-HDV" depart="696.60">
        <route edges="top-approaching right-exit"/>
    </vehicle>
    <vehicle id="L0-HDV-311" type="L0-HDV" depart="698.46">
        <route edges="top-approaching left-exit"/>
    </vehicle>
    <vehicle id="L0-HDV-312" type="L0-HDV" depart="700.32">
        <route edges="top-approaching bottom-exit"/>
    </vehicle>
    <vehicle id="L0-HDV-313" type="L0-HDV" depart="702.18">
        <route edges="bottom-approaching left-exit"/>
    </vehicle>
    <vehicle id="L0-HDV-314" type="L0-HDV" depart="704.04">