<additional xmlns:xsi="http://www.w3.org/2001/XMLSchema-instance" xsi:noNamespaceSchemaLocation="http://sumo.dlr.de/xsd/additional_file.xsd">
    
    
    
    
    
    
    
    
    
    
    
    
    
    
    
    
    
    
    
    
    
    
    
    
    
    
    
    
    
    
    
    
    
    
    
    
    
    
    
    
    
    
    
    
    
    
    
    
    
    
    
    
    
    
    
    
    
    
    
    
    
    
    
    
    
    
    
    
    
    
    
    
    
    
    
    
    
    
    
    
    
    
    
    
    
    
    
    
    
    
    
    
    
    
    
    
    
    
    
    
    
    
    
    
    
    
    
    
    
    
    
    
    
    
    
    
    
    
    
    
    
    
    
    
    
    
    
    
    
    
    
    
    
    
    


    
    
    
    
    
    
    
    
    
    
    
    
    
    
    
    
    
    
    
    
    
    
    
    
    
    
    
    
    
    
    
    
    
    
    
    
    
    
    
    
    
    
    
    
    
    
    
    
    
    
    
    
    
    
    
    
    
    
    
    
    
    
    
    
    
    
    
    
    
    
    
    
    
    
    
    
    
    
    
    
    
    
    
    
    
    
    
    
    
    
    
    
    
    
    
    
    
    
    
    
    
    
    
    
    
    
    
    
    
    
    
    
    
    
    
    
    
    
    
    
    
    
    
    
    
    
    
    
    
    
    
    
    
    
    <vTypeDistribution id="L4-CV-Left-">
        <vType id="L4-CV-Left-0" carFollowModel="CACC" color="blue" vClass="custom2" tau="0.600" decel="3.245" accel="1.003" emergencyDecel="9.000" actionStepLength="0.100" lcAssertive="0.875">
            <param key="has.toc.device" value="true"/>
            <param key="device.toc.automatedType" value="L4-CV-Left-"/>
            <param key="device.toc.manualType" value="L0-HDV-"/>
            <param key="device.toc.responseTime" value="5.217"/>
            <param key="device.toc.initialAwareness" value="0.010"/>
            <param key="device.toc.recoveryRate" value="0.152"/>
            <param key="device.toc.tauCACCtoACC" value="1.613"/>
            <param key="device.toc.ogNewTimeHeadway" value="1.600"/>
            <param key="device.toc.ogChangeRate" value="0.800"/>
            <param key="device.toc.mrmDecel" value="3.000"/>
            <param key="device.toc.useColorScheme" value="true"/>
            <param key="device.toc.dynamicToCThreshold" value="10.416"/>
            <param key="device.toc.dynamicMRMProbability" value="0.250"/>
            <param key="has.ssm.device" value="true"/>
            <param key="device.ssm.measures" value="TTC DRAC PET"/>
            <param key="device.ssm.thresholds" value="0.75 5.0 2.0"/>
            <param key="device.ssm.range" value="50.000"/>
            <param key="device.ssm.extratime" value="5.000"/>
            <param key="device.ssm.file" value="Output-Files\SSM-L4-CV.xml"/>
            <param key="device.ssm.trajectories" value="false"/>
            <param key="device.ssm.geo" value="false"/>
        </vType>
        <vType id="L4-CV-Left-1" carFollowModel="CACC" color="blue" vClass="custom2" tau="0.600" decel="2.675" accel="1.035" emergencyDecel="9.000" actionStepLength="0.100" lcAssertive="0.880">
            <param key="has.toc.device" value="true"/>
            <param key="device.toc.automatedType" value="L4-CV-Left-"/>
            <param key="device.toc.manualType" value="L0-HDV-"/>
            <param key="device.toc.responseTime" value="8.510"/>
            <param key="device.toc.initialAwareness" value="0.010"/>
            <param key="device.toc.recoveryRate" value="0.287"/>
            <param key="device.toc.tauCACCtoACC" value="1.369"/>
            <param key="device.toc.ogNewTimeHeadway" value="1.600"/>
            <param key="device.toc.ogChangeRate" value="0.800"/>
            <param key="device.toc.mrmDecel" value="3.000"/>
            <param key="device.toc.useColorScheme" value="true"/>
            <param key="device.toc.dynamicToCThreshold" value="10.530"/>
            <param key="device.toc.dynamicMRMProbability" value="0.250"/>
            <param key="has.ssm.device" value="true"/>
            <param key="device.ssm.measures" value="TTC DRAC PET"/>
            <param key="device.ssm.thresholds" value="0.75 5.0 2.0"/>
            <param key="device.ssm.range" value="50.000"/>
            <param key="device.ssm.extratime" value="5.000"/>
            <param key="device.ssm.file" value="Output-Files\SSM-L4-CV.xml"/>
            <param key="device.ssm.trajectories" value="false"/>
            <param key="device.ssm.geo" value="false"/>
        </vType>
        <vType id="L4-CV-Left-2" carFollowModel="CACC" color="blue" vClass="custom2" tau="0.600" decel="2.052" accel="1.866" emergencyDecel="9.000" actionStepLength="0.100" lcAssertive="0.844">
            <param key="has.toc.device" value="true"/>
            <param key="device.toc.automatedType" value="L4-CV-Left-"/>
            <param key="device.toc.manualType" value="L0-HDV-"/>
            <param key="device.toc.responseTime" value="6.832"/>
            <param key="device.toc.initialAwareness" value="0.010"/>
            <param key="device.toc.recoveryRate" value="0.042"/>
            <param key="device.toc.tauCACCtoACC" value="1.314"/>
            <param key="device.toc.ogNewTimeHeadway" value="1.600"/>
            <param key="device.toc.ogChangeRate" value="0.800"/>
            <param key="device.toc.mrmDecel" value="3.000"/>
            <param key="device.toc.useColorScheme" value="true"/>
            <param key="device.toc.dynamicToCThreshold" value="11.155"/>
            <param key="device.toc.dynamicMRMProbability" value="0.250"/>
            <param key="has.ssm.device" value="true"/>
            <param key="device.ssm.measures" value="TTC DRAC PET"/>
            <param key="device.ssm.thresholds" value="0.75 5.0 2.0"/>
            <param key="device.ssm.range" value="50.000"/>
            <param key="device.ssm.extratime" value="5.000"/>
            <param key="device.ssm.file" value="Output-Files\SSM-L4-CV.xml"/>
            <param key="device.ssm.trajectories" value="false"/>
            <param key="device.ssm.geo" value="false"/>
        </vType>
        <vType id="L4-CV-Left-3" carFollowModel="CACC" color="blue" vClass="custom2" tau="0.600" decel="2.568" accel="1.941" emergencyDecel="9.000" actionStepLength="0.100" lcAssertive="0.876">
            <param key="has.toc.device" value="true"/>
            <param key="device.toc.automatedType" value="L4-CV-Left-"/>
            <param key="device.toc.manualType" value="L0-HDV-"/>
            <param key="device.toc.responseTime" value="4.402"/>
            <param key="device.toc.initialAwareness" value="0.010"/>
            <param key="device.toc.recoveryRate" value="0.264"/>
            <param key="device.toc.tauCACCtoACC" value="1.784"/>
            <param key="device.toc.ogNewTimeHeadway" value="1.600"/>
            <param key="device.toc.ogChangeRate" value="0.800"/>
            <param key="device.toc.mrmDecel" value="3.000"/>
            <param key="device.toc.useColorScheme" value="true"/>
            <param key="device.toc.dynamicToCThreshold" value="10.889"/>
            <param key="device.toc.dynamicMRMProbability" value="0.250"/>
            <param key="has.ssm.device" value="true"/>
            <param key="device.ssm.measures" value="TTC DRAC PET"/>
            <param key="device.ssm.thresholds" value="0.75 5.0 2.0"/>
            <param key="device.ssm.range" value="50.000"/>
            <param key="device.ssm.extratime" value="5.000"/>
            <param key="device.ssm.file" value="Output-Files\SSM-L4-CV.xml"/>
            <param key="device.ssm.trajectories" value="false"/>
            <param key="device.ssm.geo" value="false"/>
        </vType>
        <vType id="L4-CV-Left-4" carFollowModel="CACC" color="blue" vClass="custom2" tau="0.600" decel="3.867" accel="1.501" emergencyDecel="9.000" actionStepLength="0.100" lcAssertive="0.831">
            <param key="has.toc.device" value="true"/>
            <param key="device.toc.automatedType" value="L4-CV-Left-"/>
            <param key="device.toc.manualType" value="L0-HDV-"/>
            <param key="device.toc.responseTime" value="5.952"/>
            <param key="device.toc.initialAwareness" value="0.010"/>
            <param key="device.toc.recoveryRate" value="0.348"/>
            <param key="device.toc.tauCACCtoACC" value="1.704"/>
            <param key="device.toc.ogNewTimeHeadway" value="1.600"/>
            <param key="device.toc.ogChangeRate" value="0.800"/>
            <param key="device.toc.mrmDecel" value="3.000"/>
            <param key="device.toc.useColorScheme" value="true"/>
            <param key="device.toc.dynamicToCThreshold" value="10.825"/>
            <param key="device.toc.dynamicMRMProbability" value="0.250"/>
            <param key="has.ssm.device" value="true"/>
            <param key="device.ssm.measures" value="TTC DRAC PET"/>
            <param key="device.ssm.thresholds" value="0.75 5.0 2.0"/>
            <param key="device.ssm.range" value="50.000"/>
            <param key="device.ssm.extratime" value="5.000"/>
            <param key="device.ssm.file" value="Output-Files\SSM-L4-CV.xml"/>
            <param key="device.ssm.trajectories" value="false"/>
            <param key="device.ssm.geo" value="false"/>
        </vType>
        <vType id="L4-CV-Left-5" carFollowModel="CACC" color="blue" vClass="custom2" tau="0.600" decel="3.523" accel="1.406" emergencyDecel="9.000" actionStepLength="0.100" lcAssertive="0.847">
            <param key="has.toc.device" value="true"/>
            <param key="device.toc.automatedType" value="L4-CV-Left-"/>
            <param key="device.toc.manualType" value="L0-HDV-"/>
            <param key="device.toc.responseTime" value="6.012"/>
            <param key="device.toc.initialAwareness" value="0.010"/>
            <param key="device.toc.recoveryRate" value="0.176"/>
            <param key="device.toc.tauCACCtoACC" value="1.456"/>
            <param key="device.toc.ogNewTimeHeadway" value="1.600"/>
            <param key="device.toc.ogChangeRate" value="0.800"/>
            <param key="device.toc.mrmDecel" value="3.000"/>
            <param key="device.toc.useColorScheme" value="true"/>
            <param key="device.toc.dynamicToCThreshold" value="10.581"/>
            <param key="device.toc.dynamicMRMProbability" value="0.250"/>
            <param key="has.ssm.device" value="true"/>
            <param key="device.ssm.measures" value="TTC DRAC PET"/>
            <param key="device.ssm.thresholds" value="0.75 5.0 2.0"/>
            <param key="device.ssm.range" value="50.000"/>
            <param key="device.ssm.extratime" value="5.000"/>
            <param key="device.ssm.file" value="Output-Files\SSM-L4-CV.xml"/>
            <param key="device.ssm.trajectories" value="false"/>
            <param key="device.ssm.geo" value="false"/>
        </vType>
        <vType id="L4-CV-Left-6" carFollowModel="CACC" color="blue" vClass="custom2" tau="0.600" decel="2.325" accel="0.906" emergencyDecel="9.000" actionStepLength="0.100" lcAssertive="0.810">
            <param key="has.toc.device" value="true"/>
            <param key="device.toc.automatedType" value="L4-CV-Left-"/>
            <param key="device.toc.manualType" value="L0-HDV-"/>
            <param key="device.toc.responseTime" value="2.717"/>
            <param key="device.toc.initialAwareness" value="0.010"/>
            <param key="device.toc.recoveryRate" value="0.194"/>
            <param key="device.toc.tauCACCtoACC" value="1.848"/>
            <param key="device.toc.ogNewTimeHeadway" value="1.600"/>
            <param key="device.toc.ogChangeRate" value="0.800"/>
            <param key="device.toc.mrmDecel" value="3.000"/>
            <param key="device.toc.useColorScheme" value="true"/>
            <param key="device.toc.dynamicToCThreshold" value="10.891"/>
            <param key="device.toc.dynamicMRMProbability" value="0.250"/>
            <param key="has.ssm.device" value="true"/>
            <param key="device.ssm.measures" value="TTC DRAC PET"/>
            <param key="device.ssm.thresholds" value="0.75 5.0 2.0"/>
            <param key="device.ssm.range" value="50.000"/>
            <param key="device.ssm.extratime" value="5.000"/>
            <param key="device.ssm.file" value="Output-Files\SSM-L4-CV.xml"/>
            <param key="device.ssm.trajectories" value="false"/>
            <param key="device.ssm.geo" value="false"/>
        </vType>
        <vType id="L4-CV-Left-7" carFollowModel="CACC" color="blue" vClass="custom2" tau="0.600" decel="3.652" accel="1.254" emergencyDecel="9.000" actionStepLength="0.100" lcAssertive="0.874">
            <param key="has.toc.device" value="true"/>
            <param key="device.toc.automatedType" value="L4-CV-Left-"/>
            <param key="device.toc.manualType" value="L0-HDV-"/>
            <param key="device.toc.responseTime" value="4.982"/>
            <param key="device.toc.initialAwareness" value="0.010"/>
            <param key="device.toc.recoveryRate" value="0.333"/>
            <param key="device.toc.tauCACCtoACC" value="1.307"/>
            <param key="device.toc.ogNewTimeHeadway" value="1.600"/>
            <param key="device.toc.ogChangeRate" value="0.800"/>
            <param key="device.toc.mrmDecel" value="3.000"/>
            <param key="device.toc.useColorScheme" value="true"/>
            <param key="device.toc.dynamicToCThreshold" value="10.907"/>
            <param key="device.toc.dynamicMRMProbability" value="0.250"/>
            <param key="has.ssm.device" value="true"/>
            <param key="device.ssm.measures" value="TTC DRAC PET"/>
            <param key="device.ssm.thresholds" value="0.75 5.0 2.0"/>
            <param key="device.ssm.range" value="50.000"/>
            <param key="device.ssm.extratime" value="5.000"/>
            <param key="device.ssm.file" value="Output-Files\SSM-L4-CV.xml"/>
            <param key="device.ssm.trajectories" value="false"/>
            <param key="device.ssm.geo" value="false"/>
        </vType>
        <vType id="L4-CV-Left-8" carFollowModel="CACC" color="blue" vClass="custom2" tau="0.600" decel="2.296" accel="1.591" emergencyDecel="9.000" actionStepLength="0.100" lcAssertive="0.864">
            <param key="has.toc.device" value="true"/>
            <param key="device.toc.automatedType" value="L4-CV-Left-"/>
            <param key="device.toc.manualType" value="L0-HDV-"/>
            <param key="device.toc.responseTime" value="5.436"/>
            <param key="device.toc.initialAwareness" value="0.010"/>
            <param key="device.toc.recoveryRate" value="0.232"/>
            <param key="device.toc.tauCACCtoACC" value="1.127"/>
            <param key="device.toc.ogNewTimeHeadway" value="1.600"/>
            <param key="device.toc.ogChangeRate" value="0.800"/>
            <param key="device.toc.mrmDecel" value="3.000"/>
            <param key="device.toc.useColorScheme" value="true"/>
            <param key="device.toc.dynamicToCThreshold" value="10.933"/>
            <param key="device.toc.dynamicMRMProbability" value="0.250"/>
            <param key="has.ssm.device" value="true"/>
            <param key="device.ssm.measures" value="TTC DRAC PET"/>
            <param key="device.ssm.thresholds" value="0.75 5.0 2.0"/>
            <param key="device.ssm.range" value="50.000"/>
            <param key="device.ssm.extratime" value="5.000"/>
            <param key="device.ssm.file" value="Output-Files\SSM-L4-CV.xml"/>
            <param key="device.ssm.trajectories" value="false"/>
            <param key="device.ssm.geo" value="false"/>
        </vType>
        <vType id="L4-CV-Left-9" carFollowModel="CACC" color="blue" vClass="custom2" tau="0.600" decel="3.340" accel="1.787" emergencyDecel="9.000" actionStepLength="0.100" lcAssertive="0.813">
            <param key="has.toc.device" value="true"/>
            <param key="device.toc.automatedType" value="L4-CV-Left-"/>
            <param key="device.toc.manualType" value="L0-HDV-"/>
            <param key="device.toc.responseTime" value="5.568"/>
            <param key="device.toc.initialAwareness" value="0.010"/>
            <param key="device.toc.recoveryRate" value="0.162"/>
            <param key="device.toc.tauCACCtoACC" value="1.600"/>
            <param key="device.toc.ogNewTimeHeadway" value="1.600"/>
            <param key="device.toc.ogChangeRate" value="0.800"/>
            <param key="device.toc.mrmDecel" value="3.000"/>
            <param key="device.toc.useColorScheme" value="true"/>
            <param key="device.toc.dynamicToCThreshold" value="10.742"/>
            <param key="device.toc.dynamicMRMProbability" value="0.250"/>
            <param key="has.ssm.device" value="true"/>
            <param key="device.ssm.measures" value="TTC DRAC PET"/>
            <param key="device.ssm.thresholds" value="0.75 5.0 2.0"/>
            <param key="device.ssm.range" value="50.000"/>
            <param key="device.ssm.extratime" value="5.000"/>
            <param key="device.ssm.file" value="Output-Files\SSM-L4-CV.xml"/>
            <param key="device.ssm.trajectories" value="false"/>
            <param key="device.ssm.geo" value="false"/>
        </vType>
        <vType id="L4-CV-Left-10" carFollowModel="CACC" color="blue" vClass="custom2" tau="0.600" decel="3.888" accel="1.926" emergencyDecel="9.000" actionStepLength="0.100" lcAssertive="0.843">
            <param key="has.toc.device" value="true"/>
            <param key="device.toc.automatedType" value="L4-CV-Left-"/>
            <param key="device.toc.manualType" value="L0-HDV-"/>
            <param key="device.toc.responseTime" value="6.727"/>
            <param key="device.toc.initialAwareness" value="0.010"/>
            <param key="device.toc.recoveryRate" value="0.071"/>
            <param key="device.toc.tauCACCtoACC" value="1.352"/>
            <param key="device.toc.ogNewTimeHeadway" value="1.600"/>
            <param key="device.toc.ogChangeRate" value="0.800"/>
            <param key="device.toc.mrmDecel" value="3.000"/>
            <param key="device.toc.useColorScheme" value="true"/>
            <param key="device.toc.dynamicToCThreshold" value="11.210"/>
            <param key="device.toc.dynamicMRMProbability" value="0.250"/>
            <param key="has.ssm.device" value="true"/>
            <param key="device.ssm.measures" value="TTC DRAC PET"/>
            <param key="device.ssm.thresholds" value="0.75 5.0 2.0"/>
            <param key="device.ssm.range" value="50.000"/>
            <param key="device.ssm.extratime" value="5.000"/>
            <param key="device.ssm.file" value="Output-Files\SSM-L4-CV.xml"/>
            <param key="device.ssm.trajectories" value="false"/>
            <param key="device.ssm.geo" value="false"/>
        </vType>
        <vType id="L4-CV-Left-11" carFollowModel="CACC" color="blue" vClass="custom2" tau="0.600" decel="2.070" accel="1.234" emergencyDecel="9.000" actionStepLength="0.100" lcAssertive="0.889">
            <param key="has.toc.device" value="true"/>
            <param key="device.toc.automatedType" value="L4-CV-Left-"/>
            <param key="device.toc.manualType" value="L0-HDV-"/>
            <param key="device.toc.responseTime" value="7.092"/>
            <param key="device.toc.initialAwareness" value="0.010"/>
            <param key="device.toc.recoveryRate" value="0.099"/>
            <param key="device.toc.tauCACCtoACC" value="1.302"/>
            <param key="device.toc.ogNewTimeHeadway" value="1.600"/>
            <param key="device.toc.ogChangeRate" value="0.800"/>
            <param key="device.toc.mrmDecel" value="3.000"/>
            <param key="device.toc.useColorScheme" value="true"/>
            <param key="device.toc.dynamicToCThreshold" value="11.234"/>
            <param key="device.toc.dynamicMRMProbability" value="0.250"/>
            <param key="has.ssm.device" value="true"/>
            <param key="device.ssm.measures" value="TTC DRAC PET"/>
            <param key="device.ssm.thresholds" value="0.75 5.0 2.0"/>
            <param key="device.ssm.range" value="50.000"/>
            <param key="device.ssm.extratime" value="5.000"/>
            <param key="device.ssm.file" value="Output-Files\SSM-L4-CV.xml"/>
            <param key="device.ssm.trajectories" value="false"/>
            <param key="device.ssm.geo" value="false"/>
        </vType>
        <vType id="L4-CV-Left-12" carFollowModel="CACC" color="blue" vClass="custom2" tau="0.600" decel="3.313" accel="1.292" emergencyDecel="9.000" actionStepLength="0.100" lcAssertive="0.846">
            <param key="has.toc.device" value="true"/>
            <param key="device.toc.automatedType" value="L4-CV-Left-"/>
            <param key="device.toc.manualType" value="L0-HDV-"/>
            <param key="device.toc.responseTime" value="6.153"/>
            <param key="device.toc.initialAwareness" value="0.010"/>
            <param key="device.toc.recoveryRate" value="0.342"/>
            <param key="device.toc.tauCACCtoACC" value="1.475"/>
            <param key="device.toc.ogNewTimeHeadway" value="1.600"/>
            <param key="device.toc.ogChangeRate" value="0.800"/>
            <param key="device.toc.mrmDecel" value="3.000"/>
            <param key="device.toc.useColorScheme" value="true"/>
            <param key="device.toc.dynamicToCThreshold" value="11.762"/>
            <param key="device.toc.dynamicMRMProbability" value="0.250"/>
            <param key="has.ssm.device" value="true"/>
            <param key="device.ssm.measures" value="TTC DRAC PET"/>
            <param key="device.ssm.thresholds" value="0.75 5.0 2.0"/>
            <param key="device.ssm.range" value="50.000"/>
            <param key="device.ssm.extratime" value="5.000"/>
            <param key="device.ssm.file" value="Output-Files\SSM-L4-CV.xml"/>
            <param key="device.ssm.trajectories" value="false"/>
            <param key="device.ssm.geo" value="false"/>
        </vType>
        <vType id="L4-CV-Left-13" carFollowModel="CACC" color="blue" vClass="custom2" tau="0.600" decel="2.308" accel="1.021" emergencyDecel="9.000" actionStepLength="0.100" lcAssertive="0.842">
            <param key="has.toc.device" value="true"/>
            <param key="device.toc.automatedType" value="L4-CV-Left-"/>
            <param key="device.toc.manualType" value="L0-HDV-"/>
            <param key="device.toc.responseTime" value="6.991"/>
            <param key="device.toc.initialAwareness" value="0.010"/>
            <param key="device.toc.recoveryRate" value="0.305"/>
            <param key="device.toc.tauCACCtoACC" value="0.981"/>
            <param key="device.toc.ogNewTimeHeadway" value="1.600"/>
            <param key="device.toc.ogChangeRate" value="0.800"/>
            <param key="device.toc.mrmDecel" value="3.000"/>
            <param key="device.toc.useColorScheme" value="true"/>
            <param key="device.toc.dynamicToCThreshold" value="10.951"/>
            <param key="device.toc.dynamicMRMProbability" value="0.250"/>
            <param key="has.ssm.device" value="true"/>
            <param key="device.ssm.measures" value="TTC DRAC PET"/>
            <param key="device.ssm.thresholds" value="0.75 5.0 2.0"/>
            <param key="device.ssm.range" value="50.000"/>
            <param key="device.ssm.extratime" value="5.000"/>
            <param key="device.ssm.file" value="Output-Files\SSM-L4-CV.xml"/>
            <param key="device.ssm.trajectories" value="false"/>
            <param key="device.ssm.geo" value="false"/>
        </vType>
        <vType id="L4-CV-Left-14" carFollowModel="CACC" color="blue" vClass="custom2" tau="0.600" decel="3.656" accel="1.904" emergencyDecel="9.000" actionStepLength="0.100" lcAssertive="0.872">
            <param key="has.toc.device" value="true"/>
            <param key="device.toc.automatedType" value="L4-CV-Left-"/>
            <param key="device.toc.manualType" value="L0-HDV-"/>
            <param key="device.toc.responseTime" value="3.064"/>
            <param key="device.toc.initialAwareness" value="0.010"/>
            <param key="device.toc.recoveryRate" value="0.307"/>
            <param key="device.toc.tauCACCtoACC" value="1.575"/>
            <param key="device.toc.ogNewTimeHeadway" value="1.600"/>
            <param key="device.toc.ogChangeRate" value="0.800"/>
            <param key="device.toc.mrmDecel" value="3.000"/>
            <param key="device.toc.useColorScheme" value="true"/>
            <param key="device.toc.dynamicToCThreshold" value="10.767"/>
            <param key="device.toc.dynamicMRMProbability" value="0.250"/>
            <param key="has.ssm.device" value="true"/>
            <param key="device.ssm.measures" value="TTC DRAC PET"/>
            <param key="device.ssm.thresholds" value="0.75 5.0 2.0"/>
            <param key="device.ssm.range" value="50.000"/>
            <param key="device.ssm.extratime" value="5.000"/>
            <param key="device.ssm.file" value="Output-Files\SSM-L4-CV.xml"/>
            <param key="device.ssm.trajectories" value="false"/>
            <param key="device.ssm.geo" value="false"/>
        </vType>
        <vType id="L4-CV-Left-15" carFollowModel="CACC" color="blue" vClass="custom2" tau="0.600" decel="3.235" accel="1.250" emergencyDecel="9.000" actionStepLength="0.100" lcAssertive="0.858">
            <param key="has.toc.device" value="true"/>
            <param key="device.toc.automatedType" value="L4-CV-Left-"/>
            <param key="device.toc.manualType" value="L0-HDV-"/>
            <param key="device.toc.responseTime" value="1.194"/>
            <param key="device.toc.initialAwareness" value="0.010"/>
            <param key="device.toc.recoveryRate" value="0.304"/>
            <param key="device.toc.tauCACCtoACC" value="1.389"/>
            <param key="device.toc.ogNewTimeHeadway" value="1.600"/>
            <param key="device.toc.ogChangeRate" value="0.800"/>
            <param key="device.toc.mrmDecel" value="3.000"/>
            <param key="device.toc.useColorScheme" value="true"/>
            <param key="device.toc.dynamicToCThreshold" value="10.881"/>
            <param key="device.toc.dynamicMRMProbability" value="0.250"/>
            <param key="has.ssm.device" value="true"/>
            <param key="device.ssm.measures" value="TTC DRAC PET"/>
            <param key="device.ssm.thresholds" value="0.75 5.0 2.0"/>
            <param key="device.ssm.range" value="50.000"/>
            <param key="device.ssm.extratime" value="5.000"/>
            <param key="device.ssm.file" value="Output-Files\SSM-L4-CV.xml"/>
            <param key="device.ssm.trajectories" value="false"/>
            <param key="device.ssm.geo" value="false"/>
        </vType>
        <vType id="L4-CV-Left-16" carFollowModel="CACC" color="blue" vClass="custom2" tau="0.600" decel="2.245" accel="1.214" emergencyDecel="9.000" actionStepLength="0.100" lcAssertive="0.860">
            <param key="has.toc.device" value="true"/>
            <param key="device.toc.automatedType" value="L4-CV-Left-"/>
            <param key="device.toc.manualType" value="L0-HDV-"/>
            <param key="device.toc.responseTime" value="5.241"/>
            <param key="device.toc.initialAwareness" value="0.010"/>
            <param key="device.toc.recoveryRate" value="0.203"/>
            <param key="device.toc.tauCACCtoACC" value="1.622"/>
            <param key="device.toc.ogNewTimeHeadway" value="1.600"/>
            <param key="device.toc.ogChangeRate" value="0.800"/>
            <param key="device.toc.mrmDecel" value="3.000"/>
            <param key="device.toc.useColorScheme" value="true"/>
            <param key="device.toc.dynamicToCThreshold" value="10.265"/>
            <param key="device.toc.dynamicMRMProbability" value="0.250"/>
            <param key="has.ssm.device" value="true"/>
            <param key="device.ssm.measures" value="TTC DRAC PET"/>
            <param key="device.ssm.thresholds" value="0.75 5.0 2.0"/>
            <param key="device.ssm.range" value="50.000"/>
            <param key="device.ssm.extratime" value="5.000"/>
            <param key="device.ssm.file" value="Output-Files\SSM-L4-CV.xml"/>
            <param key="device.ssm.trajectories" value="false"/>
            <param key="device.ssm.geo" value="false"/>
        </vType>
        <vType id="L4-CV-Left-17" carFollowModel="CACC" color="blue" vClass="custom2" tau="0.600" decel="3.343" accel="1.882" emergencyDecel="9.000" actionStepLength="0.100" lcAssertive="0.833">
            <param key="has.toc.device" value="true"/>
            <param key="device.toc.automatedType" value="L4-CV-Left-"/>
            <param key="device.toc.manualType" value="L0-HDV-"/>
            <param key="device.toc.responseTime" value="4.687"/>
            <param key="device.toc.initialAwareness" value="0.010"/>
            <param key="device.toc.recoveryRate" value="0.077"/>
            <param key="device.toc.tauCACCtoACC" value="1.497"/>
            <param key="device.toc.ogNewTimeHeadway" value="1.600"/>
            <param key="device.toc.ogChangeRate" value="0.800"/>
            <param key="device.toc.mrmDecel" value="3.000"/>
            <param key="device.toc.useColorScheme" value="true"/>
            <param key="device.toc.dynamicToCThreshold" value="11.936"/>
            <param key="device.toc.dynamicMRMProbability" value="0.250"/>
            <param key="has.ssm.device" value="true"/>
            <param key="device.ssm.measures" value="TTC DRAC PET"/>
            <param key="device.ssm.thresholds" value="0.75 5.0 2.0"/>
            <param key="device.ssm.range" value="50.000"/>
            <param key="device.ssm.extratime" value="5.000"/>
            <param key="device.ssm.file" value="Output-Files\SSM-L4-CV.xml"/>