<?xml version="1.0" ?><!-- generated on 04/19/21 21:04:55 by Eclipse SUMO duarouter Version 1.8.0
<configuration xmlns:xsi="http://www.w3.org/2001/XMLSchema-instance" xsi:noNamespaceSchemaLocation="http://sumo.dlr.de/xsd/duarouterConfiguration.xsd">

    <input>
        <net-file value="Collision/CollisionIntersection.net.xml"/>
        <route-files value="trips.trips.xml"/>
    </input>

    <output>
        <output-file value="Collision/RealTMSPenetration3/Route-Files/L2-AV-Route.rou.xml"/>
        <alternatives-output value="Collision/RealTMSPenetration3/Route-Files/L2-AV-Route.rou.alt.xml"/>
    </output>

    <time>
        <begin value="120"/>
        <end value="3600"/>
    </time>

    <report>
        <no-warnings value="true"/>
        <ignore-errors value="true"/>
        <no-step-log value="true"/>
    </report>

</configuration>
--><routes xmlns:xsi="http://www.w3.org/2001/XMLSchema-instance" xsi:noNamespaceSchemaLocation="http://sumo.dlr.de/xsd/routes_file.xsd">
    <vehicle id="L2-AV-0" type="L2-AV-Right-" depart="120.00">
        <route edges="left-long-approaching left-short-approaching bottom-exit"/>
    </vehicle>
    <vehicle id="L2-AV-1" type="L2-AV-" depart="126.00">
        <route edges="right-approaching bottom-exit"/>
    </vehicle>
    <vehicle id="L2-AV-2" type="L2-AV-" depart="132.00">
        <route edges="right-approaching left-exit-blockage left-exit"/>
    </vehicle>
    <vehicle id="L2-AV-3" type="L2-AV-" depart="138.00">
        <route edges="bottom-approaching right-exit"/>
    </vehicle>
    <vehicle id="L2-AV-4" type="L2-AV-" depart="144.00">
        <route edges="bottom-approaching left-exit-blockage left-exit"/>
    </vehicle>
    <vehicle id="L2-AV-6" type="L2-AV-Left-" depart="156.00">
        <route edges="left-long-approaching left-short-approaching top-exit"/>
    </vehicle>
    <vehicle id="L2-AV-8" type="L2-AV-" depart="168.00">
        <route edges="right-approaching top-exit"/>
    </vehicle>
    <vehicle id="L2-AV-9" type="L2-AV-" depart="174.00">
        <route edges="right-approaching left-exit-blockage left-exit"/>
    </vehicle>
    <vehicle id="L2-AV-10" type="L2-AV-" depart="180.00">
        <route edges="top-approaching bottom-exit"/>
    </vehicle>
    <vehicle id="L2-AV-11" type="L2-AV-" depart="186.00">
        <route edges="top-approaching left-exit-blockage left-exit"/>
    </vehicle>
    <vehicle id="L2-AV-13" type="L2-AV-Left-" depart="198.00">
        <route edges="left-long-approaching left-short-approaching top-exit"/>
    </vehicle>
    <vehicle id="L2-AV-14" type="L2-AV-" depart="204.00">
        <route edges="bottom-approaching right-exit"/>
    </vehicle>
    <vehicle id="L2-AV-15" type="L2-AV-" depart="210.00">
        <route edges="right-approaching left-exit-blockage left-exit"/>
    </vehicle>
    <vehicle id="L2-AV-16" type="L2-AV-" depart="216.00">
        <route edges="right-approaching bottom-exit"/>
    </vehicle>
    <vehicle id="L2-AV-18" type="L2-AV-" depart="228.00">
        <route edges="right-approaching left-exit-blockage left-exit"/>
    </vehicle>
    <vehicle id="L2-AV-19" type="L2-AV-" depart="234.00">
        <route edges="left-long-approaching left-short-approaching right-exit"/>
    </vehicle>
    <vehicle id="L2-AV-21" type="L2-AV-" depart="246.00">
        <route edges="top-approaching right-exit"/>
    </vehicle>
    <vehicle id="L2-AV-22" type="L2-AV-" depart="252.00">
        <route edges="bottom-approaching right-exit"/>
    </vehicle>
    <vehicle id="L2-AV-23" type="L2-AV-" depart="258.00">
        <route edges="right-approaching top-exit"/>
    </vehicle>
    <vehicle id="L2-AV-24" type="L2-AV-" depart="264.00">
        <route edges="right-approaching left-exit-blockage left-exit"/>
    </vehicle>
    <vehicle id="L2-AV-25" type="L2-AV-" depart="270.00">
        <route edges="top-approaching bottom-exit"/>
    </vehicle>
    <vehicle id="L2-AV-26" type="L2-AV-Left-" depart="276.00">
        <route edges="left-long-approaching left-short-approaching top-exit"/>
    </vehicle>
    <vehicle id="L2-AV-27" type="L2-AV-" depart="282.00">
        <route edges="bottom-approaching left-exit-blockage left-exit"/>
    </vehicle>
    <vehicle id="L2-AV-28" type="L2-AV-" depart="288.00">
        <route edges="bottom-approaching right-exit"/>
    </vehicle>
    <vehicle id="L2-AV-29" type="L2-AV-" depart="294.00">
        <route edges="top-approaching right-exit"/>
    </vehicle>
    <vehicle id="L2-AV-30" type="L2-AV-" depart="300.00">
        <route edges="top-approaching left-exit-blockage left-exit"/>
    </vehicle>
    <vehicle id="L2-AV-32" type="L2-AV-" depart="312.00">
        <route edges="right-approaching left-exit-blockage left-exit"/>
    </vehicle>
    <vehicle id="L2-AV-34" type="L2-AV-" depart="324.00">
        <route edges="left-long-approaching left-short-approaching right-exit"/>
    </vehicle>
    <vehicle id="L2-AV-35" type="L2-AV-" depart="330.00">
        <route edges="bottom-approaching right-exit"/>
    </vehicle>
    <vehicle id="L2-AV-36" type="L2-AV-" depart="336.00">
        <route edges="right-approaching top-exit"/>
    </vehicle>
    <vehicle id="L2-AV-37" type="L2-AV-" depart="342.00">
        <route edges="top-approaching left-exit-blockage left-exit"/>
    </vehicle>
    <vehicle id="L2-AV-38" type="L2-AV-" depart="348.00">
        <route edges="left-long-approaching left-short-approaching right-exit"/>
    </vehicle>
    <vehicle id="L2-AV-39" type="L2-AV-" depart="354.00">
        <route edges="bottom-approaching left-exit-blockage left-exit"/>
    </vehicle>
    <vehicle id="L2-AV-41" type="L2-AV-" depart="366.00">
        <route edges="bottom-approaching top-exit"/>
    </vehicle>
    <vehicle id="L2-AV-42" type="L2-AV-" depart="372.00">
        <route edges="bottom-approaching left-exit-blockage left-exit"/>
    </vehicle>
    <vehicle id="L2-AV-43" type="L2-AV-Left-" depart="378.00">
        <route edges="left-long-approaching left-short-approaching top-exit"/>
    </vehicle>
    <vehicle id="L2-AV-44" type="L2-AV-" depart="384.00">
        <route edges="bottom-approaching left-exit-blockage left-exit"/>
    </vehicle>
    <vehicle id="L2-AV-45" type="L2-AV-" depart="390.00">
        <route edges="right-approaching top-exit"/>
    </vehicle>
    <vehicle id="L2-AV-48" type="L2-AV-Left-" depart="408.00">
        <route edges="left-long-approaching left-short-approaching top-exit"/>
    </vehicle>
    <vehicle id="L2-AV-49" type="L2-AV-" depart="414.00">
        <route edges="top-approaching bottom-exit"/>
    </vehicle>
    <vehicle id="L2-AV-51" type="L2-AV-" depart="426.00">
        <route edges="bottom-approaching left-exit-blockage left-exit"/>
    </vehicle>
    <vehicle id="L2-AV-52" type="L2-AV-" depart="432.00">
        <route edges="right-approaching left-exit-blockage left-exit"/>
    </vehicle>
    <vehicle id="L2-AV-53" type="L2-AV-" depart="438.00">
        <route edges="bottom-approaching left-exit-blockage left-exit"/>
    </vehicle>
    <vehicle id="L2-AV-54" type="L2-AV-" depart="444.00">
        <route edges="left-long-approaching left-short-approaching right-exit"/>
    </vehicle>
    <vehicle id="L2-AV-55" type="L2-AV-" depart="450.00">
        <route edges="top-approaching right-exit"/>
    </vehicle>
    <vehicle id="L2-AV-57" type="L2-AV-" depart="462.00">
        <route edges="right-approaching bottom-exit"/>
    </vehicle>
    <vehicle id="L2-AV-61" type="L2-AV-" depart="486.00">
        <route edges="bottom-approaching right-exit"/>
    </vehicle>
    <vehicle id="L2-AV-64" type="L2-AV-Right-" depart="504.00">
        <route edges="left-long-approaching left-short-approaching bottom-exit"/>
    </vehicle>
    <vehicle id="L2-AV-66" type="L2-AV-" depart="516.00">
        <route edges="bottom-approaching left-exit-blockage left-exit"/>
    </vehicle>
    <vehicle id="L2-AV-67" type="L2-AV-" depart="522.00">
        <route edges="bottom-approaching top-exit"/>
    </vehicle>
    <vehicle id="L2-AV-68" type="L2-AV-" depart="528.00">
        <route edges="right-approaching bottom-exit"/>
    </vehicle>
    <vehicle id="L2-AV-69" type="L2-AV-" depart="534.00">
        <route edges="top-approaching left-exit-blockage left-exit"/>
    </vehicle>
    <vehicle id="L2-AV-70" type="L2-AV-Right-" depart="540.00">
        <route edges="left-long-approaching left-short-approaching bottom-exit"/>
    </vehicle>
    <vehicle id="L2-AV-75" type="L2-AV-" depart="570.00">
        <route edges="top-approaching bottom-exit"/>
    </vehicle>
    <vehicle id="L2-AV-76" type="L2-AV-" depart="576.00">
        <route edges="bottom-approaching top-exit"/>
    </vehicle>
    <vehicle id="L2-AV-77" type="L2-AV-" depart="582.00">
        <route edges="right-approaching bottom-exit"/>
    </vehicle>
    <vehicle id="L2-AV-78" type="L2-AV-" depart="588.00">
        <route edges="right-approaching bottom-exit"/>
    </vehicle>
    <vehicle id="L2-AV-79" type="L2-AV-" depart="594.00">
        <route edges="right-approaching top-exit"/>
    </vehicle>
    <vehicle id="L2-AV-80" type="L2-AV-" depart="600.00">
        <route edges="top-approaching right-exit"/>
    </vehicle>
    <vehicle id="L2-AV-82" type="L2-AV-" depart="612.00">
        <route edges="bottom-approaching top-exit"/>
    </vehicle>
    <vehicle id="L2-AV-83" type="L2-AV-" depart="618.00">
        <route edges="right-approaching top-exit"/>
    </vehicle>
    <vehicle id="L2-AV-84" type="L2-AV-Right-" depart="624.00">
        <route edges="left-long-approaching left-short-approaching bottom-exit"/>
    </vehicle>
    <vehicle id="L2-AV-87" type="L2-AV-" depart="642.00">
        <route edges="top-approaching right-exit"/>
    </vehicle>
    <vehicle id="L2-AV-88" type="L2-AV-" depart="648.00">
        <route edges="bottom-approaching right-exit"/>
    </vehicle>
    <vehicle id="L2-AV-89" type="L2-AV-Right-" depart="654.00">
        <route edges="left-long-approaching left-short-approaching bottom-exit"/>
    </vehicle>
    <vehicle id="L2-AV-90" type="L2-AV-" depart="660.00">
        <route edges="bottom-approaching left-exit-blockage left-exit"/>
    </vehicle>
    <vehicle id="L2-AV-91" type="L2-AV-" depart="666.00">
        <route edges="left-long-approaching left-short-approaching right-exit"/>
    </vehicle>
    <vehicle id="L2-AV-92" type="L2-AV-" depart="672.00">
        <route edges="top-approaching left-exit-blockage left-exit"/>
    </vehicle>
    <vehicle id="L2-AV-94" type="L2-AV-" depart="684.00">
        <route edges="top-approaching left-exit-blockage left-exit"/>
    </vehicle>
    <vehicle id="L2-AV-97" type="L2-AV-" depart="702.00">
        <route edges="right-approaching top-exit"/>
    </vehicle>
    <vehicle id="L2-AV-98" type="L2-AV-" depart="708.00">
        <route edges="top-approaching left-exit-blockage left-exit"/>
    </vehicle>
    <vehicle id="L2-AV-99" type="L2-AV-" depart="714.00">
        <route edges="right-approaching top-exit"/>
    </vehicle>
    <vehicle id="L2-AV-100" type="L2-AV-" depart="720.00">
        <route edges="bottom-approaching right-exit"/>
    </vehicle>
    <vehicle id="L2-AV-102" type="L2-AV-" depart="732.00">
        <route edges="right-approaching left-exit-blockage left-exit"/>
    </vehicle>
    <vehicle id="L2-AV-103" type="L2-AV-" depart="738.00">
        <route edges="bottom-approaching top-exit"/>
    </vehicle>
    <vehicle id="L2-AV-104" type="L2-AV-Left-" depart="744.00">
        <route edges="left-long-approaching left-short-approaching top-exit"/>
    </vehicle>
    <vehicle id="L2-AV-105" type="L2-AV-" depart="750.00">
        <route edges="top-approaching left-exit-blockage left-exit"/>
    </vehicle>
    <vehicle id="L2-AV-106" type="L2-AV-Left-" depart="756.00">
        <route edges="left-long-approaching left-short-approaching top-exit"/>
    </vehicle>
    <vehicle id="L2-AV-107" type="L2-AV-" depart="762.00">
        <route edges="right-approaching bottom-exit"/>
    </vehicle>
    <vehicle id="L2-AV-110" type="L2-AV-" depart="780.00">
        <route edges="bottom-approaching top-exit"/>
    </vehicle>
    <vehicle id="L2-AV-111" type="L2-AV-" depart="786.00">
        <route edges="top-approaching right-exit"/>
    </vehicle>
    <vehicle id="L2-AV-112" type="L2-AV-" depart="792.00">
        <route edges="left-long-approaching left-short-approaching right-exit"/>
    </vehicle>
    <vehicle id="L2-AV-114" type="L2-AV-" depart="804.00">
        <route edges="top-approaching right-exit"/>
    </vehicle>
    <vehicle id="L2-AV-115" type="L2-AV-" depart="810.00">
        <route edges="right-approaching top-exit"/>
    </vehicle>
    <vehicle id="L2-AV-116" type="L2-AV-Left-" depart="816.00">
        <route edges="left-long-approaching left-short-approaching top-exit"/>
    </vehicle>
    <vehicle id="L2-AV-117" type="L2-AV-" depart="822.00">
        <route edges="top-approaching bottom-exit"/>
    </vehicle>
    <vehicle id="L2-AV-118" type="L2-AV-" depart="828.00">
        <route edges="bottom-approaching left-exit-blockage left-exit"/>
    </vehicle>
    <vehicle id="L2-AV-119" type="L2-AV-" depart="834.00">
        <route edges="bottom-approaching right-exit"/>
    </vehicle>
    <vehicle id="L2-AV-121" type="L2-AV-" depart="846.00">
        <route edges="bottom-approaching top-exit"/>
    </vehicle>
    <vehicle id="L2-AV-123" type="L2-AV-" depart="858.00">
        <route edges="right-approaching top-exit"/>
    </vehicle>
    <vehicle id="L2-AV-124" type="L2-AV-Left-" depart="864.00">
        <route edges="left-long-approaching left-short-approaching top-exit"/>
    </vehicle>
    <vehicle id="L2-AV-125" type="L2-AV-" depart="870.00">
        <route edges="left-long-approaching left-short-approaching right-exit"/>
    </vehicle>
    <vehicle id="L2-AV-126" type="L2-AV-" depart="876.00">
        <route edges="right-approaching bottom-exit"/>
    </vehicle>
    <vehicle id="L2-AV-127" type="L2-AV-Right-" depart="882.00">
        <route edges="left-long-approaching left-short-approaching bottom-exit"/>
    </vehicle>
    <vehicle id="L2-AV-128" type="L2-AV-" depart="888.00">
        <route edges="bottom-approaching top-exit"/>
    </vehicle>
    <vehicle id="L2-AV-129" type="L2-AV-" depart="894.00">
        <route edges="bottom-approaching left-exit-blockage left-exit"/>
    </vehicle>
    <vehicle id="L2-AV-131" type="L2-AV-" depart="906.00">
        <route edges="left-long-approaching left-short-approaching right-exit"/>
    </vehicle>
    <vehicle id="L2-AV-132" type="L2-AV-" depart="912.00">
        <route edges="right-approaching top-exit"/>
    </vehicle>
    <vehicle id="L2-AV-133" type="L2-AV-" depart="918.00">
        <route edges="bottom-approaching right-exit"/>
    </vehicle>
    <vehicle id="L2-AV-134" type="L2-AV-" depart="924.00">
        <route edges="top-approaching left-exit-blockage left-exit"/>
    </vehicle>
    <vehicle id="L2-AV-135" type="L2-AV-" depart="930.00">
        <route edges="top-approaching right-exit"/>
    </vehicle>
    <vehicle id="L2-AV-136" type="L2-AV-" depart="936.00">
        <route edges="right-approaching top-exit"/>
    </vehicle>
    <vehicle id="L2-AV-137" type="L2-AV-" depart="942.00">
        <route edges="top-approaching left-exit-blockage left-exit"/>
    </vehicle>
    <vehicle id="L2-AV-140" type="L2-AV-" depart="960.00">
        <route edges="left-long-approaching left-short-approaching right-exit"/>
    </vehicle>
    <vehicle id="L2-AV-141" type="L2-AV-Left-" depart="966.00">
        <route edges="left-long-approaching left-short-approaching top-exit"/>
    </vehicle>
    <vehicle id="L2-AV-142" type="L2-AV-" depart="972.00">
        <route edges="right-approaching top-exit"/>
    </vehicle>
    <vehicle id="L2-AV-143" type="L2-AV-" depart="978.00">
        <route edges="top-approaching left-exit-blockage left-exit"/>
    </vehicle>
    <vehicle id="L2-AV-144" type="L2-AV-" depart="984.00">
        <route edges="right-approaching top-exit"/>
    </vehicle>
    <vehicle id="L2-AV-145" type="L2-AV-" depart="990.00">
        <route edges="top-approaching bottom-exit"/>
    </vehicle>
    <vehicle id="L2-AV-146" type="L2-AV-" depart="996.00">
        <route edges="bottom-approaching left-exit-blockage left-exit"/>
    </vehicle>
    <vehicle id="L2-AV-148" type="L2-AV-" depart="1008.00">
        <route edges="bottom-approaching right-exit"/>
    </vehicle>
    <vehicle id="L2-AV-150" type="L2-AV-" depart="1020.00">
        <route edges="bottom-approaching right-exit"/>
    </vehicle>
    <vehicle id="L2-AV-151" type="L2-AV-" depart="1026.00">
        <route edges="right-approaching bottom-exit"/>
    </vehicle>
    <vehicle id="L2-AV-153" type="L2-AV-" depart="1038.00">
        <route edges="bottom-approaching top-exit"/>
    </vehicle>
    <vehicle id="L2-AV-156" type="L2-AV-" depart="1056.00">
        <route edges="bottom-approaching left-exit-blockage left-exit"/>
    </vehicle>
    <vehicle id="L2-AV-157" type="L2-AV-" depart="1062.00">
        <route edges="right-approaching left-exit-blockage left-exit"/>
    </vehicle>
    <vehicle id="L2-AV-158" type="L2-AV-" depart="1068.00">
        <route edges="bottom-approaching left-exit-blockage left-exit"/>
    </vehicle>
    <vehicle id="L2-AV-159" type="L2-AV-" depart="1074.00">
        <route edges="right-approaching bottom-exit"/>
    </vehicle>
    <vehicle id="L2-AV-160" type="L2-AV-" depart="1080.00">
        <route edges="right-approaching left-exit-blockage left-exit"/>
    </vehicle>
    <vehicle id="L2-AV-161" type="L2-AV-" depart="1086.00">
        <route edges="bottom-approaching left-exit-blockage left-exit"/>
    </vehicle>
    <vehicle id="L2-AV-163" type="L2-AV-" depart="1098.00">
        <route edges="bottom-approaching top-exit"/>
    </vehicle>
    <vehicle id="L2-AV-165" type="L2-AV-" depart="1110.00">
        <route edges="bottom-approaching left-exit-blockage left-exit"/>
    </vehicle>
    <vehicle id="L2-AV-166" type="L2-AV-" depart="1116.00">
        <route edges="bottom-approaching top-exit"/>
    </vehicle>
    <vehicle id="L2-AV-167" type="L2-AV-Right-" depart="1122.00">
        <route edges="left-long-approaching left-short-approaching bottom-exit"/>
    </vehicle>
    <vehicle id="L2-AV-168" type="L2-AV-Left-" depart="1128.00">
        <route edges="left-long-approaching left-short-approaching top-exit"/>
    </vehicle>
    <vehicle id="L2-AV-169" type="L2-AV-" depart="1134.00">
        <route edges="top-approaching left-exit-blockage left-exit"/>
    </vehicle>
    <vehicle id="L2-AV-170" type="L2-AV-" depart="1140.00">
        <route edges="bottom-approaching top-exit"/>
    </vehicle>
    <vehicle id="L2-AV-173" type="L2-AV-" depart="1158.00">
        <route edges="right-approaching left-exit-blockage left-exit"/>
    </vehicle>
    <vehicle id="L2-AV-174" type="L2-AV-" depart="1164.00">
        <route edges="bottom-approaching top-exit"/>
    </vehicle>
    <vehicle id="L2-AV-175" type="L2-AV-" depart="1170.00">
        <route edges="right-approaching top-exit"/>
    </vehicle>
    <vehicle id="L2-AV-176" type="L2-AV-" depart="1176.00">
        <route edges="bottom-approaching top-exit"/>
    </vehicle>
    <vehicle id="L2-AV-177" type="L2-AV-" depart="1182.00">
        <route edges="bottom-approaching top-exit"/>
    </vehicle>
    <vehicle id="L2-AV-179" type="L2-AV-" depart="1194.00">
        <route edges="right-approaching top-exit"/>
    </vehicle>
    <vehicle id="L2-AV-180" type="L2-AV-Right-" depart="1200.00">
        <route edges="left-long-approaching left-short-approaching bottom-exit"/>
    </vehicle>
    <vehicle id="L2-AV-181" type="L2-AV-" depart="1206.00">
        <route edges="right-approaching bottom-exit"/>
    </vehicle>
    <vehicle id="L2-AV-185" type="L2-AV-" depart="1230.00">
        <route edges="top-approaching left-exit-blockage left-exit"/>
    </vehicle>
    <vehicle id="L2-AV-186" type="L2-AV-Right-" depart="1236.00">
        <route edges="left-long-approaching left-short-approaching bottom-exit"/>
    </vehicle>
    <vehicle id="L2-AV-187" type="L2-AV-Right-" depart="1242.00">
        <route edges="left-long-approaching left-short-approaching bottom-exit"/>
    </vehicle>
    <vehicle id="L2-AV-190" type="L2-AV-" depart="1260.00">
        <route edges="bottom-approaching left-exit-blockage left-exit"/>
    </vehicle>
    <vehicle id="L2-AV-191" type="L2-AV-" depart="1266.00">
        <route edges="top-approaching bottom-exit"/>
    </vehicle>
    <vehicle id="L2-AV-192" type="L2-AV-" depart="1272.00">
        <route edges="top-approaching left-exit-blockage left-exit"/>
    </vehicle>
    <vehicle id="L2-AV-193" type="L2-AV-Left-" depart="1278.00">
        <route edges="left-long-approaching left-short-approaching top-exit"/>
    </vehicle>
    <vehicle id="L2-AV-194" type="L2-AV-" depart="1284.00">
        <route edges="left-long-approaching left-short-approaching right-exit"/>
    </vehicle>
    <vehicle id="L2-AV-195" type="L2-AV-" depart="1290.00">
        <route edges="right-approaching top-exit"/>
    </vehicle>
    <vehicle id="L2-AV-196" type="L2-AV-Left-" depart="1296.00">
        <route edges="left-long-approaching left-short-approaching top-exit"/>
    </vehicle>
    <vehicle id="L2-AV-200" type="L2-AV-" depart="1320.00">
        <route edges="bottom-approaching right-exit"/>
    </vehicle>
    <vehicle id="L2-AV-201" type="L2-AV-Right-" depart="1326.00">
        <route edges="left-long-approaching left-short-approaching bottom-exit"/>
    </vehicle>
    <vehicle id="L2-AV-202" type="L2-AV-" depart="1332.00">
        <route edges="bottom-approaching top-exit"/>
    </vehicle>
    <vehicle id="L2-AV-203" type="L2-AV-" depart="1338.00">
        <route edges="top-approaching right-exit"/>
    </vehicle>
    <vehicle id="L2-AV-204" type="L2-AV-Right-" depart="1344.00">
        <route edges="left-long-approaching left-short-approaching bottom-exit"/>
    </vehicle>
    <vehicle id="L2-AV-206" type="L2-AV-" depart="1356.00">
        <route edges="bottom-approaching left-exit-blockage left-exit"/>
    </vehicle>
    <vehicle id="L2-AV-207" type="L2-AV-Left-" depart="1362.00">
        <route edges="left-long-approaching left-short-approaching top-exit"/>
    </vehicle>
    <vehicle id="L2-AV-208" type="L2-AV-" depart="1368.00">
        <route edges="top-approaching right-exit"/>
    </vehicle>
    <vehicle id="L2-AV-209" type="L2-AV-" depart="1374.00">
        <route edges="bottom-approaching top-exit"/>
    </vehicle>
    <vehicle id="L2-AV-211" type="L2-AV-" depart="1386.00">
        <route edges="bottom-approaching left-exit-blockage left-exit"/>
    </vehicle>
    <vehicle id="L2-AV-212" type="L2-AV-Left-" depart="1392.00">
        <route edges="left-long-approaching left-short-approaching top-exit"/>
    </vehicle>
    <vehicle id="L2-AV-214" type="L2-AV-" depart="1404.00">
        <route edges="bottom-approaching left-exit-blockage left-exit"/>
    </vehicle>
    <vehicle id="L2-AV-215" type="L2-AV-" depart="1410.00">
        <route edges="bottom-approaching left-exit-blockage left-exit"/>
    </vehicle>
    <vehicle id="L2-AV-217" type="L2-AV-Right-" depart="1422.00">
        <route edges="left-long-approaching left-short-approaching bottom-exit"/>
    </vehicle>
    <vehicle id="L2-AV-220" type="L2-AV-" depart="1440.00">
        <route edges="right-approaching top-exit"/>
    </vehicle>
    <vehicle id="L2-AV-222" type="L2-AV-" depart="1452.00">
        <route edges="top-approaching bottom-exit"/>
    </vehicle>
    <vehicle id="L2-AV-224" type="L2-AV-" depart="1464.00">
        <route edges="bottom-approaching top-exit"/>
    </vehicle>
    <vehicle id="L2-AV-225" type="L2-AV-" depart="1470.00">
        <route edges="top-approaching right-exit"/>
    </vehicle>
    <vehicle id="L2-AV-226" type="L2-AV-" depart="1476.00">
        <route edges="right-approaching top-exit"/>
    </vehicle>
    <vehicle id="L2-AV-227" type="L2-AV-" depart="1482.00">
        <route edges="bottom-approaching right-exit"/>
    </vehicle>
    <vehicle id="L2-AV-228" type="L2-AV-Left-" depart="1488.00">
        <route edges="left-long-approaching left-short-approaching top-exit"/>
    </vehicle>
    <vehicle id="L2-AV-230" type="L2-AV-" depart="1500.00">
        <route edges="right-approaching top-exit"/>
    </vehicle>
    <vehicle id="L2-AV-233" type="L2-AV-" depart="1518.00">
        <route edges="bottom-approaching left-exit-blockage left-exit"/>
    </vehicle>
    <vehicle id="L2-AV-234" type="L2-AV-" depart="1524.00">
        <route edges="bottom-approaching top-exit"/>
    </vehicle>
    <vehicle id="L2-AV-237" type="L2-AV-Right-" depart="1542.00">
        <route edges="left-long-approaching left-short-approaching bottom-exit"/>
    </vehicle>
    <vehicle id="L2-AV-238" type="L2-AV-" depart="1548.00">
        <route edges="top-approaching right-exit"/>
    </vehicle>
    <vehicle id="L2-AV-239" type="L2-AV-" depart="1554.00">
        <route edges="left-long-approaching left-short-approaching right-exit"/>
    </vehicle>
    <vehicle id="L2-AV-240" type="L2-AV-" depart="1560.00">
        <route edges="right-approaching bottom-exit"/>
    </vehicle>
    <vehicle id="L2-AV-241" type="L2-AV-" depart="1566.00">
        <route edges="right-approaching left-exit-blockage left-exit"/>
    </vehicle>
    <vehicle id="L2-AV-242" type="L2-AV-" depart="1572.00">
        <route edges="bottom-approaching left-exit-blockage left-exit"/>
    </vehicle>
    <vehicle id="L2-AV-243" type="L2-AV-" depart="1578.00">
        <route edges="right-approaching bottom-exit"/>
    </vehicle>
    <vehicle id="L2-AV-244" type="L2-AV-" depart="1584.00">
        <route edges="right-approaching top-exit"/>
    </vehicle>
    <vehicle id="L2-AV-246" type="L2-AV-" depart="1596.00">
        <route edges="left-long-approaching left-short-approaching right-exit"/>
    </vehicle>
    <vehicle id="L2-AV-247" type="L2-AV-" depart="1602.00">
        <route edges="top-approaching right-exit"/>
    </vehicle>
    <vehicle id="L2-AV-248" type="L2-AV-" depart="1608.00">
        <route edges="right-approaching bottom-exit"/>
    </vehicle>
    <vehicle id="L2-AV-249" type="L2-AV-" depart="1614.00">
        <route edges="bottom-approaching left-exit-blockage left-exit"/>
    </vehicle>
    <vehicle id="L2-AV-250" type="L2-AV-" depart="1620.00">
        <route edges="right-approaching left-exit-blockage left-exit"/>
    </vehicle>
    <vehicle id="L2-AV-251" type="L2-AV-" depart="1626.00">
        <route edges="right-approaching bottom-exit"/>
    </vehicle>
    <vehicle id="L2-AV-252" type="L2-AV-" depart="1632.00">
        <route edges="bottom-approaching left-exit-blockage left-exit"/>
    </vehicle>
    <vehicle id="L2-AV-254" type="L2-AV-" depart="1644.00">
        <route edges="right-approaching left-exit-blockage left-exit"/>
    </vehicle>
    <vehicle id="L2-AV-255" type="L2-AV-" depart="1650.00">
        <route edges="right-approaching left-exit-blockage left-exit"/>
    </vehicle>
    <vehicle id="L2-AV-256" type="L2-AV-Right-" depart="1656.00">
        <route edges="left-long-approaching left-short-approaching bottom-exit"/>
    </vehicle>
    <vehicle id="L2-AV-257" type="L2-AV-" depart="1662.00">
        <route edges="top-approaching bottom-exit"/>
    </vehicle>
    <vehicle id="L2-AV-259" type="L2-AV-" depart="1674.00">
        <route edges="bottom-approaching left-exit-blockage left-exit"/>
    </vehicle>
    <vehicle id="L2-AV-262" type="L2-AV-" depart="1692.00">
        <route edges="bottom-approaching top-exit"/>
    </vehicle>
    <vehicle id="L2-AV-263" type="L2-AV-" depart="1698.00">
        <route edges="bottom-approaching right-exit"/>
    </vehicle>
    <vehicle id="L2-AV-264" type="L2-AV-" depart="1704.00">
        <route edges="bottom-approaching right-exit"/>
    </vehicle>
    <vehicle id="L2-AV-265" type="L2-AV-" depart="1710.00">
        <route edges="top-approaching bottom-exit"/>
    </vehicle>
    <vehicle id="L2-AV-266" type="L2-AV-" depart="1716.00">
        <route edges="top-approaching right-exit"/>
    </vehicle>
    <vehicle id="L2-AV-267" type="L2-AV-" depart="1722.00">
        <route edges="top-approaching right-exit"/>
    </vehicle>
    <vehicle id="L2-AV-268" type="L2-AV-" depart="1728.00">
        <route edges="bottom-approaching top-exit"/>
    </vehicle>
    <vehicle id="L2-AV-269" type="L2-AV-Right-" depart="1734.00">
        <route edges="left-long-approaching left-short-approaching bottom-exit"/>
    </vehicle>
    <vehicle id="L2-AV-270" type="L2-AV-" depart="1740.00">
        <route edges="bottom-approaching left-exit-blockage left-exit"/>
    </vehicle>
    <vehicle id="L2-AV-272" type="L2-AV-" depart="1752.00">
        <route edges="bottom-approaching left-exit-blockage left-exit"/>
    </vehicle>
    <vehicle id="L2-AV-273" type="L2-AV-Left-" depart="1758.00">
        <route edges="left-long-approaching left-short-approaching top-exit"/>
    </vehicle>
    <vehicle id="L2-AV-274" type="L2-AV-" depart="1764.00">
        <route edges="bottom-approaching right-exit"/>
    </vehicle>
    <vehicle id="L2-AV-275" type="L2-AV-" depart="1770.00">
        <route edges="top-approaching bottom-exit"/>
    </vehicle>
    <vehicle id="L2-AV-276" type="L2-AV-" depart="1776.00">
        <route edges="top-approaching right-exit"/>
    </vehicle>
    <vehicle id="L2-AV-277" type="L2-AV-" depart="1782.00">
        <route edges="top-approaching left-exit-blockage left-exit"/>
    </vehicle>
    <vehicle id="L2-AV-279" type="L2-AV-" depart="1794.00">
        <route edges="top-approaching right-exit"/>
    </vehicle>
    <vehicle id="L2-AV-281" type="L2-AV-Right-" depart="1806.00">
        <route edges="left-long-approaching left-short-approaching bottom-exit"/>
    </vehicle>
    <vehicle id="L2-AV-282" type="L2-AV-" depart="1812.00">
        <route edges="bottom-approaching top-exit"/>
    </vehicle>
    <vehicle id="L2-AV-283" type="L2-AV-Left-" depart="1818.00">