<?xml version="1.0" ?><!-- generated on 04/10/21 15:03:35 by Eclipse SUMO duarouter Version 1.8.0
<configuration xmlns:xsi="http://www.w3.org/2001/XMLSchema-instance" xsi:noNamespaceSchemaLocation="http://sumo.dlr.de/xsd/duarouterConfiguration.xsd">

    <input>
        <net-file value="Collision/CollisionIntersection.net.xml"/>
        <route-files value="trips.trips.xml"/>
    </input>

    <output>
        <output-file value="Collision/RealTMSPenetration3/Route-Files/L2-CV-Route.rou.xml"/>
        <alternatives-output value="Collision/RealTMSPenetration3/Route-Files/L2-CV-Route.rou.alt.xml"/>
    </output>

    <time>
        <begin value="120"/>
        <end value="3600"/>
    </time>

    <report>
        <no-warnings value="true"/>
        <ignore-errors value="true"/>
        <no-step-log value="true"/>
    </report>

</configuration>
--><routes xmlns:xsi="http://www.w3.org/2001/XMLSchema-instance" xsi:noNamespaceSchemaLocation="http://sumo.dlr.de/xsd/routes_file.xsd">
    <vehicle id="L2-CV-2" type="L2-CV-" depart="127.00">
        <route edges="right-approaching left-exit-blockage left-exit"/>
    </vehicle>
    <vehicle id="L2-CV-3" type="L2-CV-" depart="130.50">
        <route edges="top-approaching left-exit-blockage left-exit"/>
    </vehicle>
    <vehicle id="L2-CV-4" type="L2-CV-" depart="134.00">
        <route edges="left-long-approaching left-short-approaching right-exit"/>
    </vehicle>
    <vehicle id="L2-CV-6" type="L2-CV-Left-" depart="141.00">
        <route edges="left-long-approaching left-short-approaching top-exit"/>
    </vehicle>
    <vehicle id="L2-CV-7" type="L2-CV-" depart="144.50">
        <route edges="right-approaching left-exit-blockage left-exit"/>
    </vehicle>
    <vehicle id="L2-CV-10" type="L2-CV-" depart="155.00">
        <route edges="left-long-approaching left-short-approaching right-exit"/>
    </vehicle>
    <vehicle id="L2-CV-11" type="L2-CV-" depart="158.50">
        <route edges="top-approaching right-exit"/>
    </vehicle>
    <vehicle id="L2-CV-12" type="L2-CV-Right-" depart="162.00">
        <route edges="left-long-approaching left-short-approaching bottom-exit"/>
    </vehicle>
    <vehicle id="L2-CV-13" type="L2-CV-" depart="165.50">
        <route edges="left-long-approaching left-short-approaching right-exit"/>
    </vehicle>
    <vehicle id="L2-CV-15" type="L2-CV-Left-" depart="172.50">
        <route edges="left-long-approaching left-short-approaching top-exit"/>
    </vehicle>
    <vehicle id="L2-CV-16" type="L2-CV-Left-" depart="176.00">
        <route edges="left-long-approaching left-short-approaching top-exit"/>
    </vehicle>
    <vehicle id="L2-CV-17" type="L2-CV-" depart="179.50">
        <route edges="right-approaching bottom-exit"/>
    </vehicle>
    <vehicle id="L2-CV-18" type="L2-CV-" depart="183.00">
        <route edges="right-approaching left-exit-blockage left-exit"/>
    </vehicle>
    <vehicle id="L2-CV-19" type="L2-CV-" depart="186.50">
        <route edges="top-approaching right-exit"/>
    </vehicle>
    <vehicle id="L2-CV-20" type="L2-CV-" depart="190.00">
        <route edges="bottom-approaching left-exit-blockage left-exit"/>
    </vehicle>
    <vehicle id="L2-CV-21" type="L2-CV-" depart="193.50">
        <route edges="top-approaching bottom-exit"/>
    </vehicle>
    <vehicle id="L2-CV-22" type="L2-CV-Left-" depart="197.00">
        <route edges="left-long-approaching left-short-approaching top-exit"/>
    </vehicle>
    <vehicle id="L2-CV-23" type="L2-CV-" depart="200.50">
        <route edges="bottom-approaching right-exit"/>
    </vehicle>
    <vehicle id="L2-CV-24" type="L2-CV-" depart="204.00">
        <route edges="bottom-approaching top-exit"/>
    </vehicle>
    <vehicle id="L2-CV-25" type="L2-CV-" depart="207.50">
        <route edges="top-approaching left-exit-blockage left-exit"/>
    </vehicle>
    <vehicle id="L2-CV-26" type="L2-CV-" depart="211.00">
        <route edges="bottom-approaching left-exit-blockage left-exit"/>
    </vehicle>
    <vehicle id="L2-CV-27" type="L2-CV-" depart="214.50">
        <route edges="right-approaching top-exit"/>
    </vehicle>
    <vehicle id="L2-CV-28" type="L2-CV-" depart="218.00">
        <route edges="bottom-approaching right-exit"/>
    </vehicle>
    <vehicle id="L2-CV-30" type="L2-CV-" depart="225.00">
        <route edges="top-approaching right-exit"/>
    </vehicle>
    <vehicle id="L2-CV-31" type="L2-CV-" depart="228.50">
        <route edges="top-approaching right-exit"/>
    </vehicle>
    <vehicle id="L2-CV-32" type="L2-CV-" depart="232.00">
        <route edges="right-approaching left-exit-blockage left-exit"/>
    </vehicle>
    <vehicle id="L2-CV-33" type="L2-CV-" depart="235.50">
        <route edges="right-approaching left-exit-blockage left-exit"/>
    </vehicle>
    <vehicle id="L2-CV-34" type="L2-CV-" depart="239.00">
        <route edges="right-approaching left-exit-blockage left-exit"/>
    </vehicle>
    <vehicle id="L2-CV-37" type="L2-CV-Right-" depart="249.50">
        <route edges="left-long-approaching left-short-approaching bottom-exit"/>
    </vehicle>
    <vehicle id="L2-CV-41" type="L2-CV-" depart="263.50">
        <route edges="right-approaching left-exit-blockage left-exit"/>
    </vehicle>
    <vehicle id="L2-CV-42" type="L2-CV-" depart="267.00">
        <route edges="right-approaching left-exit-blockage left-exit"/>
    </vehicle>
    <vehicle id="L2-CV-44" type="L2-CV-" depart="274.00">
        <route edges="top-approaching right-exit"/>
    </vehicle>
    <vehicle id="L2-CV-45" type="L2-CV-" depart="277.50">
        <route edges="top-approaching right-exit"/>
    </vehicle>
    <vehicle id="L2-CV-46" type="L2-CV-" depart="281.00">
        <route edges="left-long-approaching left-short-approaching right-exit"/>
    </vehicle>
    <vehicle id="L2-CV-48" type="L2-CV-" depart="288.00">
        <route edges="top-approaching bottom-exit"/>
    </vehicle>
    <vehicle id="L2-CV-49" type="L2-CV-" depart="291.50">
        <route edges="right-approaching left-exit-blockage left-exit"/>
    </vehicle>
    <vehicle id="L2-CV-50" type="L2-CV-" depart="295.00">
        <route edges="right-approaching top-exit"/>
    </vehicle>
    <vehicle id="L2-CV-51" type="L2-CV-" depart="298.50">
        <route edges="bottom-approaching right-exit"/>
    </vehicle>
    <vehicle id="L2-CV-53" type="L2-CV-" depart="305.50">
        <route edges="top-approaching left-exit-blockage left-exit"/>
    </vehicle>
    <vehicle id="L2-CV-54" type="L2-CV-" depart="309.00">
        <route edges="top-approaching bottom-exit"/>
    </vehicle>
    <vehicle id="L2-CV-55" type="L2-CV-" depart="312.50">
        <route edges="bottom-approaching right-exit"/>
    </vehicle>
    <vehicle id="L2-CV-56" type="L2-CV-" depart="316.00">
        <route edges="bottom-approaching right-exit"/>
    </vehicle>
    <vehicle id="L2-CV-57" type="L2-CV-" depart="319.50">
        <route edges="top-approaching right-exit"/>
    </vehicle>
    <vehicle id="L2-CV-58" type="L2-CV-" depart="323.00">
        <route edges="right-approaching bottom-exit"/>
    </vehicle>
    <vehicle id="L2-CV-60" type="L2-CV-" depart="330.00">
        <route edges="right-approaching left-exit-blockage left-exit"/>
    </vehicle>
    <vehicle id="L2-CV-61" type="L2-CV-Left-" depart="333.50">
        <route edges="left-long-approaching left-short-approaching top-exit"/>
    </vehicle>
    <vehicle id="L2-CV-63" type="L2-CV-" depart="340.50">
        <route edges="top-approaching bottom-exit"/>
    </vehicle>
    <vehicle id="L2-CV-66" type="L2-CV-" depart="351.00">
        <route edges="bottom-approaching left-exit-blockage left-exit"/>
    </vehicle>
    <vehicle id="L2-CV-67" type="L2-CV-" depart="354.50">
        <route edges="bottom-approaching left-exit-blockage left-exit"/>
    </vehicle>
    <vehicle id="L2-CV-68" type="L2-CV-" depart="358.00">
        <route edges="bottom-approaching right-exit"/>
    </vehicle>
    <vehicle id="L2-CV-69" type="L2-CV-Right-" depart="361.50">
        <route edges="left-long-approaching left-short-approaching bottom-exit"/>
    </vehicle>
    <vehicle id="L2-CV-70" type="L2-CV-Right-" depart="365.00">
        <route edges="left-long-approaching left-short-approaching bottom-exit"/>
    </vehicle>
    <vehicle id="L2-CV-71" type="L2-CV-" depart="368.50">
        <route edges="bottom-approaching top-exit"/>
    </vehicle>
    <vehicle id="L2-CV-72" type="L2-CV-" depart="372.00">
        <route edges="bottom-approaching left-exit-blockage left-exit"/>
    </vehicle>
    <vehicle id="L2-CV-73" type="L2-CV-" depart="375.50">
        <route edges="right-approaching top-exit"/>
    </vehicle>
    <vehicle id="L2-CV-74" type="L2-CV-" depart="379.00">
        <route edges="top-approaching bottom-exit"/>
    </vehicle>
    <vehicle id="L2-CV-75" type="L2-CV-" depart="382.50">
        <route edges="right-approaching top-exit"/>
    </vehicle>
    <vehicle id="L2-CV-76" type="L2-CV-" depart="386.00">
        <route edges="bottom-approaching right-exit"/>
    </vehicle>
    <vehicle id="L2-CV-77" type="L2-CV-" depart="389.50">
        <route edges="top-approaching left-exit-blockage left-exit"/>
    </vehicle>
    <vehicle id="L2-CV-79" type="L2-CV-Right-" depart="396.50">
        <route edges="left-long-approaching left-short-approaching bottom-exit"/>
    </vehicle>
    <vehicle id="L2-CV-83" type="L2-CV-" depart="410.50">
        <route edges="top-approaching left-exit-blockage left-exit"/>
    </vehicle>
    <vehicle id="L2-CV-84" type="L2-CV-" depart="414.00">
        <route edges="right-approaching bottom-exit"/>
    </vehicle>
    <vehicle id="L2-CV-85" type="L2-CV-" depart="417.50">
        <route edges="right-approaching left-exit-blockage left-exit"/>
    </vehicle>
    <vehicle id="L2-CV-86" type="L2-CV-" depart="421.00">
        <route edges="bottom-approaching left-exit-blockage left-exit"/>
    </vehicle>
    <vehicle id="L2-CV-87" type="L2-CV-" depart="424.50">
        <route edges="bottom-approaching top-exit"/>
    </vehicle>
    <vehicle id="L2-CV-89" type="L2-CV-Left-" depart="431.50">
        <route edges="left-long-approaching left-short-approaching top-exit"/>
    </vehicle>
    <vehicle id="L2-CV-91" type="L2-CV-" depart="438.50">
        <route edges="right-approaching left-exit-blockage left-exit"/>
    </vehicle>
    <vehicle id="L2-CV-92" type="L2-CV-" depart="442.00">
        <route edges="left-long-approaching left-short-approaching right-exit"/>
    </vehicle>
    <vehicle id="L2-CV-94" type="L2-CV-Right-" depart="449.00">
        <route edges="left-long-approaching left-short-approaching bottom-exit"/>
    </vehicle>
    <vehicle id="L2-CV-95" type="L2-CV-" depart="452.50">
        <route edges="right-approaching left-exit-blockage left-exit"/>
    </vehicle>
    <vehicle id="L2-CV-96" type="L2-CV-" depart="456.00">
        <route edges="top-approaching right-exit"/>
    </vehicle>
    <vehicle id="L2-CV-98" type="L2-CV-" depart="463.00">
        <route edges="right-approaching left-exit-blockage left-exit"/>
    </vehicle>
    <vehicle id="L2-CV-99" type="L2-CV-" depart="466.50">
        <route edges="right-approaching bottom-exit"/>
    </vehicle>
    <vehicle id="L2-CV-101" type="L2-CV-" depart="473.50">
        <route edges="bottom-approaching right-exit"/>
    </vehicle>
    <vehicle id="L2-CV-102" type="L2-CV-" depart="477.00">
        <route edges="left-long-approaching left-short-approaching right-exit"/>
    </vehicle>
    <vehicle id="L2-CV-105" type="L2-CV-Left-" depart="487.50">
        <route edges="left-long-approaching left-short-approaching top-exit"/>
    </vehicle>
    <vehicle id="L2-CV-107" type="L2-CV-" depart="494.50">
        <route edges="bottom-approaching top-exit"/>
    </vehicle>
    <vehicle id="L2-CV-108" type="L2-CV-" depart="498.00">
        <route edges="right-approaching bottom-exit"/>
    </vehicle>
    <vehicle id="L2-CV-109" type="L2-CV-" depart="501.50">
        <route edges="right-approaching top-exit"/>
    </vehicle>
    <vehicle id="L2-CV-110" type="L2-CV-" depart="505.00">
        <route edges="left-long-approaching left-short-approaching right-exit"/>
    </vehicle>
    <vehicle id="L2-CV-111" type="L2-CV-Right-" depart="508.50">
        <route edges="left-long-approaching left-short-approaching bottom-exit"/>
    </vehicle>
    <vehicle id="L2-CV-112" type="L2-CV-" depart="512.00">
        <route edges="right-approaching bottom-exit"/>
    </vehicle>
    <vehicle id="L2-CV-113" type="L2-CV-" depart="515.50">
        <route edges="top-approaching right-exit"/>
    </vehicle>
    <vehicle id="L2-CV-115" type="L2-CV-" depart="522.50">
        <route edges="right-approaching top-exit"/>
    </vehicle>
    <vehicle id="L2-CV-116" type="L2-CV-Left-" depart="526.00">
        <route edges="left-long-approaching left-short-approaching top-exit"/>
    </vehicle>
    <vehicle id="L2-CV-117" type="L2-CV-" depart="529.50">
        <route edges="bottom-approaching top-exit"/>
    </vehicle>
    <vehicle id="L2-CV-118" type="L2-CV-Right-" depart="533.00">
        <route edges="left-long-approaching left-short-approaching bottom-exit"/>
    </vehicle>
    <vehicle id="L2-CV-121" type="L2-CV-" depart="543.50">
        <route edges="bottom-approaching right-exit"/>
    </vehicle>
    <vehicle id="L2-CV-122" type="L2-CV-" depart="547.00">
        <route edges="right-approaching left-exit-blockage left-exit"/>
    </vehicle>
    <vehicle id="L2-CV-123" type="L2-CV-" depart="550.50">
        <route edges="top-approaching left-exit-blockage left-exit"/>
    </vehicle>
    <vehicle id="L2-CV-127" type="L2-CV-" depart="564.50">
        <route edges="top-approaching bottom-exit"/>
    </vehicle>
    <vehicle id="L2-CV-130" type="L2-CV-" depart="575.00">
        <route edges="top-approaching right-exit"/>
    </vehicle>
    <vehicle id="L2-CV-131" type="L2-CV-" depart="578.50">
        <route edges="left-long-approaching left-short-approaching right-exit"/>
    </vehicle>
    <vehicle id="L2-CV-132" type="L2-CV-" depart="582.00">
        <route edges="bottom-approaching right-exit"/>
    </vehicle>
    <vehicle id="L2-CV-134" type="L2-CV-Left-" depart="589.00">
        <route edges="left-long-approaching left-short-approaching top-exit"/>
    </vehicle>
    <vehicle id="L2-CV-135" type="L2-CV-" depart="592.50">
        <route edges="right-approaching left-exit-blockage left-exit"/>
    </vehicle>
    <vehicle id="L2-CV-136" type="L2-CV-" depart="596.00">
        <route edges="right-approaching bottom-exit"/>
    </vehicle>
    <vehicle id="L2-CV-137" type="L2-CV-" depart="599.50">
        <route edges="bottom-approaching top-exit"/>
    </vehicle>
    <vehicle id="L2-CV-139" type="L2-CV-" depart="606.50">
        <route edges="right-approaching left-exit-blockage left-exit"/>
    </vehicle>
    <vehicle id="L2-CV-140" type="L2-CV-Right-" depart="610.00">
        <route edges="left-long-approaching left-short-approaching bottom-exit"/>
    </vehicle>
    <vehicle id="L2-CV-142" type="L2-CV-" depart="617.00">
        <route edges="right-approaching bottom-exit"/>
    </vehicle>
    <vehicle id="L2-CV-144" type="L2-CV-Right-" depart="624.00">
        <route edges="left-long-approaching left-short-approaching bottom-exit"/>
    </vehicle>
    <vehicle id="L2-CV-145" type="L2-CV-" depart="627.50">
        <route edges="top-approaching left-exit-blockage left-exit"/>
    </vehicle>
    <vehicle id="L2-CV-148" type="L2-CV-" depart="638.00">
        <route edges="right-approaching left-exit-blockage left-exit"/>
    </vehicle>
    <vehicle id="L2-CV-149" type="L2-CV-" depart="641.50">
        <route edges="left-long-approaching left-short-approaching right-exit"/>
    </vehicle>
    <vehicle id="L2-CV-151" type="L2-CV-" depart="648.50">
        <route edges="right-approaching left-exit-blockage left-exit"/>
    </vehicle>
    <vehicle id="L2-CV-152" type="L2-CV-" depart="652.00">
        <route edges="top-approaching right-exit"/>
    </vehicle>
    <vehicle id="L2-CV-154" type="L2-CV-" depart="659.00">
        <route edges="right-approaching bottom-exit"/>
    </vehicle>
    <vehicle id="L2-CV-155" type="L2-CV-" depart="662.50">
        <route edges="bottom-approaching left-exit-blockage left-exit"/>
    </vehicle>
    <vehicle id="L2-CV-156" type="L2-CV-" depart="666.00">
        <route edges="right-approaching left-exit-blockage left-exit"/>
    </vehicle>
    <vehicle id="L2-CV-157" type="L2-CV-" depart="669.50">
        <route edges="left-long-approaching left-short-approaching right-exit"/>
    </vehicle>
    <vehicle id="L2-CV-158" type="L2-CV-" depart="673.00">
        <route edges="right-approaching left-exit-blockage left-exit"/>
    </vehicle>
    <vehicle id="L2-CV-159" type="L2-CV-Left-" depart="676.50">
        <route edges="left-long-approaching left-short-approaching top-exit"/>
    </vehicle>
    <vehicle id="L2-CV-160" type="L2-CV-Left-" depart="680.00">
        <route edges="left-long-approaching left-short-approaching top-exit"/>
    </vehicle>
    <vehicle id="L2-CV-162" type="L2-CV-" depart="687.00">
        <route edges="bottom-approaching top-exit"/>
    </vehicle>
    <vehicle id="L2-CV-163" type="L2-CV-" depart="690.50">
        <route edges="right-approaching top-exit"/>
    </vehicle>
    <vehicle id="L2-CV-164" type="L2-CV-" depart="694.00">
        <route edges="left-long-approaching left-short-approaching right-exit"/>
    </vehicle>
    <vehicle id="L2-CV-165" type="L2-CV-" depart="697.50">
        <route edges="bottom-approaching left-exit-blockage left-exit"/>
    </vehicle>
    <vehicle id="L2-CV-167" type="L2-CV-" depart="704.50">
        <route edges="top-approaching bottom-exit"/>
    </vehicle>
    <vehicle id="L2-CV-169" type="L2-CV-" depart="711.50">
        <route edges="left-long-approaching left-short-approaching right-exit"/>
    </vehicle>
    <vehicle id="L2-CV-170" type="L2-CV-" depart="715.00">
        <route edges="bottom-approaching top-exit"/>
    </vehicle>
    <vehicle id="L2-CV-171" type="L2-CV-" depart="718.50">
        <route edges="top-approaching bottom-exit"/>
    </vehicle>
    <vehicle id="L2-CV-172" type="L2-CV-" depart="722.00">
        <route edges="left-long-approaching left-short-approaching right-exit"/>
    </vehicle>
    <vehicle id="L2-CV-173" type="L2-CV-" depart="725.50">
        <route edges="top-approaching left-exit-blockage left-exit"/>
    </vehicle>
    <vehicle id="L2-CV-174" type="L2-CV-" depart="729.00">
        <route edges="top-approaching left-exit-blockage left-exit"/>
    </vehicle>
    <vehicle id="L2-CV-176" type="L2-CV-" depart="736.00">
        <route edges="right-approaching bottom-exit"/>
    </vehicle>
    <vehicle id="L2-CV-177" type="L2-CV-" depart="739.50">
        <route edges="right-approaching bottom-exit"/>
    </vehicle>
    <vehicle id="L2-CV-178" type="L2-CV-Left-" depart="743.00">
        <route edges="left-long-approaching left-short-approaching top-exit"/>
    </vehicle>
    <vehicle id="L2-CV-181" type="L2-CV-Left-" depart="753.50">
        <route edges="left-long-approaching left-short-approaching top-exit"/>
    </vehicle>
    <vehicle id="L2-CV-182" type="L2-CV-" depart="757.00">
        <route edges="top-approaching right-exit"/>
    </vehicle>
    <vehicle id="L2-CV-183" type="L2-CV-" depart="760.50">
        <route edges="right-approaching top-exit"/>
    </vehicle>
    <vehicle id="L2-CV-185" type="L2-CV-" depart="767.50">
        <route edges="top-approaching bottom-exit"/>
    </vehicle>
    <vehicle id="L2-CV-187" type="L2-CV-" depart="774.50">
        <route edges="bottom-approaching top-exit"/>
    </vehicle>
    <vehicle id="L2-CV-188" type="L2-CV-Right-" depart="778.00">
        <route edges="left-long-approaching left-short-approaching bottom-exit"/>
    </vehicle>
    <vehicle id="L2-CV-189" type="L2-CV-" depart="781.50">
        <route edges="bottom-approaching right-exit"/>
    </vehicle>
    <vehicle id="L2-CV-194" type="L2-CV-" depart="799.00">
        <route edges="top-approaching right-exit"/>
    </vehicle>
    <vehicle id="L2-CV-195" type="L2-CV-" depart="802.50">
        <route edges="top-approaching bottom-exit"/>
    </vehicle>
    <vehicle id="L2-CV-197" type="L2-CV-" depart="809.50">
        <route edges="top-approaching left-exit-blockage left-exit"/>
    </vehicle>
    <vehicle id="L2-CV-198" type="L2-CV-" depart="813.00">
        <route edges="top-approaching left-exit-blockage left-exit"/>
    </vehicle>
    <vehicle id="L2-CV-199" type="L2-CV-" depart="816.50">
        <route edges="right-approaching top-exit"/>
    </vehicle>
    <vehicle id="L2-CV-200" type="L2-CV-" depart="820.00">
        <route edges="top-approaching right-exit"/>
    </vehicle>
    <vehicle id="L2-CV-202" type="L2-CV-" depart="827.00">
        <route edges="right-approaching left-exit-blockage left-exit"/>
    </vehicle>
    <vehicle id="L2-CV-203" type="L2-CV-" depart="830.50">
        <route edges="bottom-approaching top-exit"/>
    </vehicle>
    <vehicle id="L2-CV-204" type="L2-CV-" depart="834.00">
        <route edges="top-approaching left-exit-blockage left-exit"/>
    </vehicle>
    <vehicle id="L2-CV-205" type="L2-CV-Left-" depart="837.50">
        <route edges="left-long-approaching left-short-approaching top-exit"/>
    </vehicle>
    <vehicle id="L2-CV-206" type="L2-CV-" depart="841.00">
        <route edges="bottom-approaching right-exit"/>
    </vehicle>
    <vehicle id="L2-CV-207" type="L2-CV-" depart="844.50">
        <route edges="bottom-approaching left-exit-blockage left-exit"/>
    </vehicle>
    <vehicle id="L2-CV-208" type="L2-CV-" depart="848.00">
        <route edges="top-approaching bottom-exit"/>
    </vehicle>
    <vehicle id="L2-CV-209" type="L2-CV-" depart="851.50">
        <route edges="bottom-approaching left-exit-blockage left-exit"/>
    </vehicle>
    <vehicle id="L2-CV-210" type="L2-CV-Left-" depart="855.00">
        <route edges="left-long-approaching left-short-approaching top-exit"/>
    </vehicle>
    <vehicle id="L2-CV-212" type="L2-CV-" depart="862.00">
        <route edges="bottom-approaching top-exit"/>
    </vehicle>
    <vehicle id="L2-CV-213" type="L2-CV-" depart="865.50">
        <route edges="left-long-approaching left-short-approaching right-exit"/>
    </vehicle>
    <vehicle id="L2-CV-214" type="L2-CV-Right-" depart="869.00">
        <route edges="left-long-approaching left-short-approaching bottom-exit"/>
    </vehicle>
    <vehicle id="L2-CV-215" type="L2-CV-Right-" depart="872.50">
        <route edges="left-long-approaching left-short-approaching bottom-exit"/>
    </vehicle>
    <vehicle id="L2-CV-216" type="L2-CV-" depart="876.00">
        <route edges="bottom-approaching right-exit"/>
    </vehicle>
    <vehicle id="L2-CV-217" type="L2-CV-" depart="879.50">
        <route edges="right-approaching bottom-exit"/>
    </vehicle>
    <vehicle id="L2-CV-218" type="L2-CV-" depart="883.00">
        <route edges="right-approaching left-exit-blockage left-exit"/>
    </vehicle>
    <vehicle id="L2-CV-219" type="L2-CV-Left-" depart="886.50">
        <route edges="left-long-approaching left-short-approaching top-exit"/>
    </vehicle>
    <vehicle id="L2-CV-220" type="L2-CV-Left-" depart="890.00">
        <route edges="left-long-approaching left-short-approaching top-exit"/>
    </vehicle>
    <vehicle id="L2-CV-221" type="L2-CV-" depart="893.50">
        <route edges="right-approaching left-exit-blockage left-exit"/>
    </vehicle>
    <vehicle id="L2-CV-222" type="L2-CV-" depart="897.00">
        <route edges="right-approaching left-exit-blockage left-exit"/>
    </vehicle>
    <vehicle id="L2-CV-223" type="L2-CV-" depart="900.50">
        <route edges="bottom-approaching right-exit"/>
    </vehicle>
    <vehicle id="L2-CV-224" type="L2-CV-" depart="904.00">
        <route edges="right-approaching top-exit"/>
    </vehicle>
    <vehicle id="L2-CV-225" type="L2-CV-" depart="907.50">
        <route edges="bottom-approaching top-exit"/>
    </vehicle>
    <vehicle id="L2-CV-227" type="L2-CV-" depart="914.50">
        <route edges="top-approaching right-exit"/>
    </vehicle>
    <vehicle id="L2-CV-228" type="L2-CV-" depart="918.00">
        <route edges="top-approaching right-exit"/>
    </vehicle>
    <vehicle id="L2-CV-229" type="L2-CV-" depart="921.50">
        <route edges="top-approaching bottom-exit"/>
    </vehicle>
    <vehicle id="L2-CV-230" type="L2-CV-" depart="925.00">
        <route edges="top-approaching left-exit-blockage left-exit"/>
    </vehicle>
    <vehicle id="L2-CV-231" type="L2-CV-" depart="928.50">
        <route edges="top-approaching left-exit-blockage left-exit"/>
    </vehicle>
    <vehicle id="L2-CV-232" type="L2-CV-" depart="932.00">
        <route edges="top-approaching bottom-exit"/>
    </vehicle>
    <vehicle id="L2-CV-233" type="L2-CV-" depart="935.50">
        <route edges="bottom-approaching top-exit"/>
    </vehicle>
    <vehicle id="L2-CV-234" type="L2-CV-Left-" depart="939.00">
        <route edges="left-long-approaching left-short-approaching top-exit"/>
    </vehicle>
    <vehicle id="L2-CV-235" type="L2-CV-" depart="942.50">
        <route edges="top-approaching right-exit"/>
    </vehicle>
    <vehicle id="L2-CV-236" type="L2-CV-" depart="946.00">
        <route edges="right-approaching bottom-exit"/>
    </vehicle>
    <vehicle id="L2-CV-237" type="L2-CV-" depart="949.50">
        <route edges="bottom-approaching top-exit"/>
    </vehicle>
    <vehicle id="L2-CV-239" type="L2-CV-" depart="956.50">
        <route edges="right-approaching left-exit-blockage left-exit"/>
    </vehicle>
    <vehicle id="L2-CV-240" type="L2-CV-Right-" depart="960.00">
        <route edges="left-long-approaching left-short-approaching bottom-exit"/>
    </vehicle>
    <vehicle id="L2-CV-241" type="L2-CV-" depart="963.50">
        <route edges="left-long-approaching left-short-approaching right-exit"/>
    </vehicle>
    <vehicle id="L2-CV-243" type="L2-CV-Right-" depart="970.50">
        <route edges="left-long-approaching left-short-approaching bottom-exit"/>
    </vehicle>
    <vehicle id="L2-CV-244" type="L2-CV-" depart="974.00">
        <route edges="top-approaching right-exit"/>
    </vehicle>
    <vehicle id="L2-CV-245" type="L2-CV-" depart="977.50">
        <route edges="bottom-approaching left-exit-blockage left-exit"/>
    </vehicle>
    <vehicle id="L2-CV-246" type="L2-CV-" depart="981.00">
        <route edges="right-approaching bottom-exit"/>
    </vehicle>
    <vehicle id="L2-CV-248" type="L2-CV-" depart="988.00">
        <route edges="right-approaching bottom-exit"/>
    </vehicle>
    <vehicle id="L2-CV-249" type="L2-CV-" depart="991.50">
        <route edges="bottom-approaching left-exit-blockage left-exit"/>
    </vehicle>
    <vehicle id="L2-CV-250" type="L2-CV-" depart="995.00">
        <route edges="bottom-approaching left-exit-blockage left-exit"/>
    </vehicle>
    <vehicle id="L2-CV-251" type="L2-CV-" depart="998.50">
        <route edges="bottom-approaching top-exit"/>
    </vehicle>
    <vehicle id="L2-CV-252" type="L2-CV-" depart="1002.00">
        <route edges="top-approaching bottom-exit"/>
    </vehicle>
    <vehicle id="L2-CV-253" type="L2-CV-" depart="1005.50">
        <route edges="top-approaching bottom-exit"/>
    </vehicle>
    <vehicle id="L2-CV-254" type="L2-CV-" depart="1009.00">
        <route edges="bottom-approaching right-exit"/>
    </vehicle>
    <vehicle id="L2-CV-255" type="L2-CV-" depart="1012.50">
        <route edges="top-approaching bottom-exit"/>
    </vehicle>
    <vehicle id="L2-CV-256" type="L2-CV-" depart="1016.00">
        <route edges="bottom-approaching left-exit-blockage left-exit"/>
    </vehicle>
    <vehicle id="L2-CV-257" type="L2-CV-" depart="1019.50">
        <route edges="bottom-approaching right-exit"/>
    </vehicle>
    <vehicle id="L2-CV-258" type="L2-CV-" depart="1023.00">
        <route edges="top-approaching bottom-exit"/>
    </vehicle>
    <vehicle id="L2-CV-259" type="L2-CV-" depart="1026.50">
        <route edges="bottom-approaching left-exit-blockage left-exit"/>
    </vehicle>
    <vehicle id="L2-CV-260" type="L2-CV-" depart="1030.00">
        <route edges="top-approaching bottom-exit"/>
    </vehicle>
    <vehicle id="L2-CV-261" type="L2-CV-" depart="1033.50">
        <route edges="top-approaching left-exit-blockage left-exit"/>
    </vehicle>
    <vehicle id="L2-CV-264" type="L2-CV-" depart="1044.00">
        <route edges="right-approaching bottom-exit"/>
    </vehicle>
    <vehicle id="L2-CV-265" type="L2-CV-" depart="1047.50">
        <route edges="top-approaching bottom-exit"/>
    </vehicle>
    <vehicle id="L2-CV-266" type="L2-CV-" depart="1051.00">
        <route edges="right-approaching bottom-exit"/>
    </vehicle>
    <vehicle id="L2-CV-268" type="L2-CV-" depart="1058.00">
        <route edges="top-approaching left-exit-blockage left-exit"/>
    </vehicle>
    <vehicle id="L2-CV-269" type="L2-CV-" depart="1061.50">
        <route edges="bottom-approaching top-exit"/>
    </vehicle>
    <vehicle id="L2-CV-273" type="L2-CV-" depart="1075.50">
        <route edges="bottom-approaching left-exit-blockage left-exit"/>
    </vehicle>
    <vehicle id="L2-CV-275" type="L2-CV-" depart="1082.50">
        <route edges="bottom-approaching left-exit-blockage left-exit"/>
    </vehicle>
    <vehicle id="L2-CV-276" type="L2-CV-" depart="1086.00">
        <route edges="right-approaching bottom-exit"/>
    </vehicle>
    <vehicle id="L2-CV-278" type="L2-CV-" depart="1093.00">
        <route edges="top-approaching bottom-exit"/>
    </vehicle>
    <vehicle id="L2-CV-280" type="L2-CV-" depart="1100.00">
        <route edges="right-approaching left-exit-blockage left-exit"/>
    </vehicle>
    <vehicle id="L2-CV-281" type="L2-CV-" depart="1103.50">
        <route edges="bottom-approaching left-exit-blockage left-exit"/>
    </vehicle>
    <vehicle id="L2-CV-282" type="L2-CV-Left-" depart="1107.00">