<?xml version="1.0" ?><!-- generated on 04/17/21 21:21:21 by Eclipse SUMO duarouter Version 1.8.0
<configuration xmlns:xsi="http://www.w3.org/2001/XMLSchema-instance" xsi:noNamespaceSchemaLocation="http://sumo.dlr.de/xsd/duarouterConfiguration.xsd">

    <input>
        <net-file value="Collision/CollisionIntersection.net.xml"/>
        <route-files value="trips.trips.xml"/>
    </input>

    <output>
        <output-file value="Collision/RealTMSPenetration3/Route-Files/L2-CV-Route.rou.xml"/>
        <alternatives-output value="Collision/RealTMSPenetration3/Route-Files/L2-CV-Route.rou.alt.xml"/>
    </output>

    <time>
        <begin value="120"/>
        <end value="3600"/>
    </time>

    <report>
        <no-warnings value="true"/>
        <ignore-errors value="true"/>
        <no-step-log value="true"/>
    </report>

</configuration>
--><routes xmlns:xsi="http://www.w3.org/2001/XMLSchema-instance" xsi:noNamespaceSchemaLocation="http://sumo.dlr.de/xsd/routes_file.xsd">
    <vehicle id="L2-CV-2" type="L2-CV-" depart="128.40">
        <route edges="right-approaching top-exit"/>
    </vehicle>
    <vehicle id="L2-CV-3" type="L2-CV-" depart="132.60">
        <route edges="bottom-approaching left-exit-blockage left-exit"/>
    </vehicle>
    <vehicle id="L2-CV-4" type="L2-CV-" depart="136.80">
        <route edges="top-approaching right-exit"/>
    </vehicle>
    <vehicle id="L2-CV-5" type="L2-CV-" depart="141.00">
        <route edges="top-approaching bottom-exit"/>
    </vehicle>
    <vehicle id="L2-CV-6" type="L2-CV-Right-" depart="145.20">
        <route edges="left-long-approaching left-short-approaching bottom-exit"/>
    </vehicle>
    <vehicle id="L2-CV-9" type="L2-CV-Left-" depart="157.80">
        <route edges="left-long-approaching left-short-approaching top-exit"/>
    </vehicle>
    <vehicle id="L2-CV-10" type="L2-CV-" depart="162.00">
        <route edges="top-approaching bottom-exit"/>
    </vehicle>
    <vehicle id="L2-CV-11" type="L2-CV-" depart="166.20">
        <route edges="top-approaching bottom-exit"/>
    </vehicle>
    <vehicle id="L2-CV-12" type="L2-CV-" depart="170.40">
        <route edges="right-approaching bottom-exit"/>
    </vehicle>
    <vehicle id="L2-CV-13" type="L2-CV-" depart="174.60">
        <route edges="bottom-approaching top-exit"/>
    </vehicle>
    <vehicle id="L2-CV-16" type="L2-CV-Left-" depart="187.20">
        <route edges="left-long-approaching left-short-approaching top-exit"/>
    </vehicle>
    <vehicle id="L2-CV-18" type="L2-CV-" depart="195.60">
        <route edges="bottom-approaching top-exit"/>
    </vehicle>
    <vehicle id="L2-CV-19" type="L2-CV-" depart="199.80">
        <route edges="right-approaching top-exit"/>
    </vehicle>
    <vehicle id="L2-CV-20" type="L2-CV-" depart="204.00">
        <route edges="top-approaching left-exit-blockage left-exit"/>
    </vehicle>
    <vehicle id="L2-CV-21" type="L2-CV-Right-" depart="208.20">
        <route edges="left-long-approaching left-short-approaching bottom-exit"/>
    </vehicle>
    <vehicle id="L2-CV-23" type="L2-CV-" depart="216.60">
        <route edges="left-long-approaching left-short-approaching right-exit"/>
    </vehicle>
    <vehicle id="L2-CV-24" type="L2-CV-" depart="220.80">
        <route edges="bottom-approaching right-exit"/>
    </vehicle>
    <vehicle id="L2-CV-26" type="L2-CV-" depart="229.20">
        <route edges="top-approaching left-exit-blockage left-exit"/>
    </vehicle>
    <vehicle id="L2-CV-28" type="L2-CV-" depart="237.60">
        <route edges="right-approaching bottom-exit"/>
    </vehicle>
    <vehicle id="L2-CV-29" type="L2-CV-" depart="241.80">
        <route edges="top-approaching bottom-exit"/>
    </vehicle>
    <vehicle id="L2-CV-30" type="L2-CV-" depart="246.00">
        <route edges="right-approaching top-exit"/>
    </vehicle>
    <vehicle id="L2-CV-31" type="L2-CV-" depart="250.20">
        <route edges="bottom-approaching top-exit"/>
    </vehicle>
    <vehicle id="L2-CV-32" type="L2-CV-" depart="254.40">
        <route edges="left-long-approaching left-short-approaching right-exit"/>
    </vehicle>
    <vehicle id="L2-CV-34" type="L2-CV-" depart="262.80">
        <route edges="bottom-approaching top-exit"/>
    </vehicle>
    <vehicle id="L2-CV-35" type="L2-CV-" depart="267.00">
        <route edges="bottom-approaching top-exit"/>
    </vehicle>
    <vehicle id="L2-CV-38" type="L2-CV-" depart="279.60">
        <route edges="right-approaching top-exit"/>
    </vehicle>
    <vehicle id="L2-CV-39" type="L2-CV-" depart="283.80">
        <route edges="bottom-approaching right-exit"/>
    </vehicle>
    <vehicle id="L2-CV-41" type="L2-CV-" depart="292.20">
        <route edges="bottom-approaching top-exit"/>
    </vehicle>
    <vehicle id="L2-CV-42" type="L2-CV-" depart="296.40">
        <route edges="bottom-approaching left-exit-blockage left-exit"/>
    </vehicle>
    <vehicle id="L2-CV-43" type="L2-CV-" depart="300.60">
        <route edges="right-approaching top-exit"/>
    </vehicle>
    <vehicle id="L2-CV-44" type="L2-CV-Left-" depart="304.80">
        <route edges="left-long-approaching left-short-approaching top-exit"/>
    </vehicle>
    <vehicle id="L2-CV-45" type="L2-CV-" depart="309.00">
        <route edges="right-approaching left-exit-blockage left-exit"/>
    </vehicle>
    <vehicle id="L2-CV-46" type="L2-CV-Right-" depart="313.20">
        <route edges="left-long-approaching left-short-approaching bottom-exit"/>
    </vehicle>
    <vehicle id="L2-CV-48" type="L2-CV-" depart="321.60">
        <route edges="right-approaching top-exit"/>
    </vehicle>
    <vehicle id="L2-CV-50" type="L2-CV-" depart="330.00">
        <route edges="top-approaching right-exit"/>
    </vehicle>
    <vehicle id="L2-CV-51" type="L2-CV-Right-" depart="334.20">
        <route edges="left-long-approaching left-short-approaching bottom-exit"/>
    </vehicle>
    <vehicle id="L2-CV-52" type="L2-CV-" depart="338.40">
        <route edges="right-approaching top-exit"/>
    </vehicle>
    <vehicle id="L2-CV-54" type="L2-CV-" depart="346.80">
        <route edges="bottom-approaching top-exit"/>
    </vehicle>
    <vehicle id="L2-CV-55" type="L2-CV-" depart="351.00">
        <route edges="bottom-approaching left-exit-blockage left-exit"/>
    </vehicle>
    <vehicle id="L2-CV-56" type="L2-CV-" depart="355.20">
        <route edges="top-approaching bottom-exit"/>
    </vehicle>
    <vehicle id="L2-CV-57" type="L2-CV-" depart="359.40">
        <route edges="right-approaching top-exit"/>
    </vehicle>
    <vehicle id="L2-CV-58" type="L2-CV-" depart="363.60">
        <route edges="right-approaching top-exit"/>
    </vehicle>
    <vehicle id="L2-CV-59" type="L2-CV-" depart="367.80">
        <route edges="bottom-approaching left-exit-blockage left-exit"/>
    </vehicle>
    <vehicle id="L2-CV-60" type="L2-CV-" depart="372.00">
        <route edges="bottom-approaching top-exit"/>
    </vehicle>
    <vehicle id="L2-CV-63" type="L2-CV-" depart="384.60">
        <route edges="top-approaching left-exit-blockage left-exit"/>
    </vehicle>
    <vehicle id="L2-CV-64" type="L2-CV-" depart="388.80">
        <route edges="left-long-approaching left-short-approaching right-exit"/>
    </vehicle>
    <vehicle id="L2-CV-66" type="L2-CV-Right-" depart="397.20">
        <route edges="left-long-approaching left-short-approaching bottom-exit"/>
    </vehicle>
    <vehicle id="L2-CV-67" type="L2-CV-Left-" depart="401.40">
        <route edges="left-long-approaching left-short-approaching top-exit"/>
    </vehicle>
    <vehicle id="L2-CV-68" type="L2-CV-" depart="405.60">
        <route edges="top-approaching right-exit"/>
    </vehicle>
    <vehicle id="L2-CV-70" type="L2-CV-" depart="414.00">
        <route edges="bottom-approaching left-exit-blockage left-exit"/>
    </vehicle>
    <vehicle id="L2-CV-72" type="L2-CV-Left-" depart="422.40">
        <route edges="left-long-approaching left-short-approaching top-exit"/>
    </vehicle>
    <vehicle id="L2-CV-73" type="L2-CV-" depart="426.60">
        <route edges="top-approaching right-exit"/>
    </vehicle>
    <vehicle id="L2-CV-74" type="L2-CV-" depart="430.80">
        <route edges="right-approaching top-exit"/>
    </vehicle>
    <vehicle id="L2-CV-75" type="L2-CV-" depart="435.00">
        <route edges="left-long-approaching left-short-approaching right-exit"/>
    </vehicle>
    <vehicle id="L2-CV-77" type="L2-CV-" depart="443.40">
        <route edges="top-approaching right-exit"/>
    </vehicle>
    <vehicle id="L2-CV-78" type="L2-CV-Left-" depart="447.60">
        <route edges="left-long-approaching left-short-approaching top-exit"/>
    </vehicle>
    <vehicle id="L2-CV-80" type="L2-CV-" depart="456.00">
        <route edges="bottom-approaching right-exit"/>
    </vehicle>
    <vehicle id="L2-CV-82" type="L2-CV-Left-" depart="464.40">
        <route edges="left-long-approaching left-short-approaching top-exit"/>
    </vehicle>
    <vehicle id="L2-CV-83" type="L2-CV-" depart="468.60">
        <route edges="right-approaching top-exit"/>
    </vehicle>
    <vehicle id="L2-CV-84" type="L2-CV-" depart="472.80">
        <route edges="left-long-approaching left-short-approaching right-exit"/>
    </vehicle>
    <vehicle id="L2-CV-85" type="L2-CV-" depart="477.00">
        <route edges="right-approaching top-exit"/>
    </vehicle>
    <vehicle id="L2-CV-86" type="L2-CV-Left-" depart="481.20">
        <route edges="left-long-approaching left-short-approaching top-exit"/>
    </vehicle>
    <vehicle id="L2-CV-87" type="L2-CV-" depart="485.40">
        <route edges="top-approaching right-exit"/>
    </vehicle>
    <vehicle id="L2-CV-90" type="L2-CV-" depart="498.00">
        <route edges="bottom-approaching top-exit"/>
    </vehicle>
    <vehicle id="L2-CV-91" type="L2-CV-" depart="502.20">
        <route edges="top-approaching left-exit-blockage left-exit"/>
    </vehicle>
    <vehicle id="L2-CV-93" type="L2-CV-" depart="510.60">
        <route edges="right-approaching bottom-exit"/>
    </vehicle>
    <vehicle id="L2-CV-94" type="L2-CV-" depart="514.80">
        <route edges="top-approaching right-exit"/>
    </vehicle>
    <vehicle id="L2-CV-95" type="L2-CV-" depart="519.00">
        <route edges="right-approaching left-exit-blockage left-exit"/>
    </vehicle>
    <vehicle id="L2-CV-96" type="L2-CV-" depart="523.20">
        <route edges="right-approaching top-exit"/>
    </vehicle>
    <vehicle id="L2-CV-99" type="L2-CV-" depart="535.80">
        <route edges="left-long-approaching left-short-approaching right-exit"/>
    </vehicle>
    <vehicle id="L2-CV-100" type="L2-CV-" depart="540.00">
        <route edges="bottom-approaching right-exit"/>
    </vehicle>
    <vehicle id="L2-CV-101" type="L2-CV-" depart="544.20">
        <route edges="right-approaching bottom-exit"/>
    </vehicle>
    <vehicle id="L2-CV-102" type="L2-CV-Right-" depart="548.40">
        <route edges="left-long-approaching left-short-approaching bottom-exit"/>
    </vehicle>
    <vehicle id="L2-CV-104" type="L2-CV-Right-" depart="556.80">
        <route edges="left-long-approaching left-short-approaching bottom-exit"/>
    </vehicle>
    <vehicle id="L2-CV-108" type="L2-CV-" depart="573.60">
        <route edges="bottom-approaching top-exit"/>
    </vehicle>
    <vehicle id="L2-CV-109" type="L2-CV-" depart="577.80">
        <route edges="bottom-approaching left-exit-blockage left-exit"/>
    </vehicle>
    <vehicle id="L2-CV-111" type="L2-CV-" depart="586.20">
        <route edges="bottom-approaching top-exit"/>
    </vehicle>
    <vehicle id="L2-CV-112" type="L2-CV-Right-" depart="590.40">
        <route edges="left-long-approaching left-short-approaching bottom-exit"/>
    </vehicle>
    <vehicle id="L2-CV-113" type="L2-CV-" depart="594.60">
        <route edges="right-approaching bottom-exit"/>
    </vehicle>
    <vehicle id="L2-CV-114" type="L2-CV-" depart="598.80">
        <route edges="right-approaching left-exit-blockage left-exit"/>
    </vehicle>
    <vehicle id="L2-CV-115" type="L2-CV-" depart="603.00">
        <route edges="right-approaching top-exit"/>
    </vehicle>
    <vehicle id="L2-CV-116" type="L2-CV-" depart="607.20">
        <route edges="top-approaching left-exit-blockage left-exit"/>
    </vehicle>
    <vehicle id="L2-CV-117" type="L2-CV-" depart="611.40">
        <route edges="top-approaching right-exit"/>
    </vehicle>
    <vehicle id="L2-CV-118" type="L2-CV-Right-" depart="615.60">
        <route edges="left-long-approaching left-short-approaching bottom-exit"/>
    </vehicle>
    <vehicle id="L2-CV-121" type="L2-CV-" depart="628.20">
        <route edges="right-approaching left-exit-blockage left-exit"/>
    </vehicle>
    <vehicle id="L2-CV-122" type="L2-CV-" depart="632.40">
        <route edges="top-approaching bottom-exit"/>
    </vehicle>
    <vehicle id="L2-CV-123" type="L2-CV-" depart="636.60">
        <route edges="bottom-approaching right-exit"/>
    </vehicle>
    <vehicle id="L2-CV-124" type="L2-CV-" depart="640.80">
        <route edges="right-approaching bottom-exit"/>
    </vehicle>
    <vehicle id="L2-CV-125" type="L2-CV-" depart="645.00">
        <route edges="right-approaching top-exit"/>
    </vehicle>
    <vehicle id="L2-CV-127" type="L2-CV-" depart="653.40">
        <route edges="bottom-approaching left-exit-blockage left-exit"/>
    </vehicle>
    <vehicle id="L2-CV-128" type="L2-CV-" depart="657.60">
        <route edges="top-approaching left-exit-blockage left-exit"/>
    </vehicle>
    <vehicle id="L2-CV-130" type="L2-CV-" depart="666.00">
        <route edges="right-approaching left-exit-blockage left-exit"/>
    </vehicle>
    <vehicle id="L2-CV-131" type="L2-CV-" depart="670.20">
        <route edges="top-approaching left-exit-blockage left-exit"/>
    </vehicle>
    <vehicle id="L2-CV-133" type="L2-CV-" depart="678.60">
        <route edges="top-approaching left-exit-blockage left-exit"/>
    </vehicle>
    <vehicle id="L2-CV-135" type="L2-CV-" depart="687.00">
        <route edges="bottom-approaching right-exit"/>
    </vehicle>
    <vehicle id="L2-CV-138" type="L2-CV-" depart="699.60">
        <route edges="bottom-approaching right-exit"/>
    </vehicle>
    <vehicle id="L2-CV-139" type="L2-CV-Left-" depart="703.80">
        <route edges="left-long-approaching left-short-approaching top-exit"/>
    </vehicle>
    <vehicle id="L2-CV-140" type="L2-CV-" depart="708.00">
        <route edges="top-approaching bottom-exit"/>
    </vehicle>
    <vehicle id="L2-CV-141" type="L2-CV-Right-" depart="712.20">
        <route edges="left-long-approaching left-short-approaching bottom-exit"/>
    </vehicle>
    <vehicle id="L2-CV-142" type="L2-CV-" depart="716.40">
        <route edges="top-approaching left-exit-blockage left-exit"/>
    </vehicle>
    <vehicle id="L2-CV-143" type="L2-CV-" depart="720.60">
        <route edges="right-approaching left-exit-blockage left-exit"/>
    </vehicle>
    <vehicle id="L2-CV-145" type="L2-CV-" depart="729.00">
        <route edges="right-approaching bottom-exit"/>
    </vehicle>
    <vehicle id="L2-CV-146" type="L2-CV-" depart="733.20">
        <route edges="top-approaching left-exit-blockage left-exit"/>
    </vehicle>
    <vehicle id="L2-CV-147" type="L2-CV-" depart="737.40">
        <route edges="right-approaching left-exit-blockage left-exit"/>
    </vehicle>
    <vehicle id="L2-CV-148" type="L2-CV-" depart="741.60">
        <route edges="left-long-approaching left-short-approaching right-exit"/>
    </vehicle>
    <vehicle id="L2-CV-151" type="L2-CV-" depart="754.20">
        <route edges="bottom-approaching left-exit-blockage left-exit"/>
    </vehicle>
    <vehicle id="L2-CV-152" type="L2-CV-Left-" depart="758.40">
        <route edges="left-long-approaching left-short-approaching top-exit"/>
    </vehicle>
    <vehicle id="L2-CV-153" type="L2-CV-" depart="762.60">
        <route edges="top-approaching right-exit"/>
    </vehicle>
    <vehicle id="L2-CV-154" type="L2-CV-" depart="766.80">
        <route edges="bottom-approaching top-exit"/>
    </vehicle>
    <vehicle id="L2-CV-155" type="L2-CV-" depart="771.00">
        <route edges="left-long-approaching left-short-approaching right-exit"/>
    </vehicle>
    <vehicle id="L2-CV-157" type="L2-CV-Left-" depart="779.40">
        <route edges="left-long-approaching left-short-approaching top-exit"/>
    </vehicle>
    <vehicle id="L2-CV-159" type="L2-CV-" depart="787.80">
        <route edges="top-approaching bottom-exit"/>
    </vehicle>
    <vehicle id="L2-CV-160" type="L2-CV-Left-" depart="792.00">
        <route edges="left-long-approaching left-short-approaching top-exit"/>
    </vehicle>
    <vehicle id="L2-CV-161" type="L2-CV-" depart="796.20">
        <route edges="bottom-approaching top-exit"/>
    </vehicle>
    <vehicle id="L2-CV-162" type="L2-CV-" depart="800.40">
        <route edges="right-approaching left-exit-blockage left-exit"/>
    </vehicle>
    <vehicle id="L2-CV-163" type="L2-CV-Left-" depart="804.60">
        <route edges="left-long-approaching left-short-approaching top-exit"/>
    </vehicle>
    <vehicle id="L2-CV-164" type="L2-CV-" depart="808.80">
        <route edges="top-approaching bottom-exit"/>
    </vehicle>
    <vehicle id="L2-CV-165" type="L2-CV-" depart="813.00">
        <route edges="left-long-approaching left-short-approaching right-exit"/>
    </vehicle>
    <vehicle id="L2-CV-167" type="L2-CV-" depart="821.40">
        <route edges="bottom-approaching right-exit"/>
    </vehicle>
    <vehicle id="L2-CV-168" type="L2-CV-" depart="825.60">
        <route edges="top-approaching bottom-exit"/>
    </vehicle>
    <vehicle id="L2-CV-169" type="L2-CV-" depart="829.80">
        <route edges="bottom-approaching top-exit"/>
    </vehicle>
    <vehicle id="L2-CV-170" type="L2-CV-" depart="834.00">
        <route edges="top-approaching right-exit"/>
    </vehicle>
    <vehicle id="L2-CV-171" type="L2-CV-" depart="838.20">
        <route edges="bottom-approaching right-exit"/>
    </vehicle>
    <vehicle id="L2-CV-173" type="L2-CV-" depart="846.60">
        <route edges="right-approaching bottom-exit"/>
    </vehicle>
    <vehicle id="L2-CV-174" type="L2-CV-" depart="850.80">
        <route edges="top-approaching bottom-exit"/>
    </vehicle>
    <vehicle id="L2-CV-175" type="L2-CV-" depart="855.00">
        <route edges="right-approaching top-exit"/>
    </vehicle>
    <vehicle id="L2-CV-176" type="L2-CV-" depart="859.20">
        <route edges="right-approaching bottom-exit"/>
    </vehicle>
    <vehicle id="L2-CV-177" type="L2-CV-Left-" depart="863.40">
        <route edges="left-long-approaching left-short-approaching top-exit"/>
    </vehicle>
    <vehicle id="L2-CV-178" type="L2-CV-" depart="867.60">
        <route edges="bottom-approaching right-exit"/>
    </vehicle>
    <vehicle id="L2-CV-179" type="L2-CV-Right-" depart="871.80">
        <route edges="left-long-approaching left-short-approaching bottom-exit"/>
    </vehicle>
    <vehicle id="L2-CV-180" type="L2-CV-" depart="876.00">
        <route edges="right-approaching bottom-exit"/>
    </vehicle>
    <vehicle id="L2-CV-181" type="L2-CV-" depart="880.20">
        <route edges="bottom-approaching left-exit-blockage left-exit"/>
    </vehicle>
    <vehicle id="L2-CV-184" type="L2-CV-" depart="892.80">
        <route edges="top-approaching bottom-exit"/>
    </vehicle>
    <vehicle id="L2-CV-186" type="L2-CV-" depart="901.20">
        <route edges="right-approaching left-exit-blockage left-exit"/>
    </vehicle>
    <vehicle id="L2-CV-187" type="L2-CV-" depart="905.40">
        <route edges="top-approaching left-exit-blockage left-exit"/>
    </vehicle>
    <vehicle id="L2-CV-188" type="L2-CV-" depart="909.60">
        <route edges="bottom-approaching right-exit"/>
    </vehicle>
    <vehicle id="L2-CV-189" type="L2-CV-" depart="913.80">
        <route edges="bottom-approaching right-exit"/>
    </vehicle>
    <vehicle id="L2-CV-190" type="L2-CV-Left-" depart="918.00">
        <route edges="left-long-approaching left-short-approaching top-exit"/>
    </vehicle>
    <vehicle id="L2-CV-192" type="L2-CV-" depart="926.40">
        <route edges="left-long-approaching left-short-approaching right-exit"/>
    </vehicle>
    <vehicle id="L2-CV-193" type="L2-CV-" depart="930.60">
        <route edges="left-long-approaching left-short-approaching right-exit"/>
    </vehicle>
    <vehicle id="L2-CV-194" type="L2-CV-" depart="934.80">
        <route edges="right-approaching bottom-exit"/>
    </vehicle>
    <vehicle id="L2-CV-195" type="L2-CV-" depart="939.00">
        <route edges="bottom-approaching left-exit-blockage left-exit"/>
    </vehicle>
    <vehicle id="L2-CV-196" type="L2-CV-" depart="943.20">
        <route edges="right-approaching bottom-exit"/>
    </vehicle>
    <vehicle id="L2-CV-198" type="L2-CV-" depart="951.60">
        <route edges="bottom-approaching right-exit"/>
    </vehicle>
    <vehicle id="L2-CV-200" type="L2-CV-" depart="960.00">
        <route edges="right-approaching bottom-exit"/>
    </vehicle>
    <vehicle id="L2-CV-201" type="L2-CV-" depart="964.20">
        <route edges="top-approaching left-exit-blockage left-exit"/>
    </vehicle>
    <vehicle id="L2-CV-202" type="L2-CV-Left-" depart="968.40">
        <route edges="left-long-approaching left-short-approaching top-exit"/>
    </vehicle>
    <vehicle id="L2-CV-203" type="L2-CV-" depart="972.60">
        <route edges="bottom-approaching right-exit"/>
    </vehicle>
    <vehicle id="L2-CV-205" type="L2-CV-" depart="981.00">
        <route edges="top-approaching right-exit"/>
    </vehicle>
    <vehicle id="L2-CV-207" type="L2-CV-" depart="989.40">
        <route edges="top-approaching right-exit"/>
    </vehicle>
    <vehicle id="L2-CV-208" type="L2-CV-" depart="993.60">
        <route edges="top-approaching bottom-exit"/>
    </vehicle>
    <vehicle id="L2-CV-209" type="L2-CV-" depart="997.80">
        <route edges="right-approaching left-exit-blockage left-exit"/>
    </vehicle>
    <vehicle id="L2-CV-210" type="L2-CV-" depart="1002.00">
        <route edges="bottom-approaching left-exit-blockage left-exit"/>
    </vehicle>
    <vehicle id="L2-CV-211" type="L2-CV-" depart="1006.20">
        <route edges="right-approaching left-exit-blockage left-exit"/>
    </vehicle>
    <vehicle id="L2-CV-212" type="L2-CV-Right-" depart="1010.40">
        <route edges="left-long-approaching left-short-approaching bottom-exit"/>
    </vehicle>
    <vehicle id="L2-CV-213" type="L2-CV-" depart="1014.60">
        <route edges="top-approaching right-exit"/>
    </vehicle>
    <vehicle id="L2-CV-214" type="L2-CV-" depart="1018.80">
        <route edges="top-approaching left-exit-blockage left-exit"/>
    </vehicle>
    <vehicle id="L2-CV-215" type="L2-CV-" depart="1023.00">
        <route edges="top-approaching right-exit"/>
    </vehicle>
    <vehicle id="L2-CV-217" type="L2-CV-" depart="1031.40">
        <route edges="right-approaching left-exit-blockage left-exit"/>
    </vehicle>
    <vehicle id="L2-CV-220" type="L2-CV-" depart="1044.00">
        <route edges="top-approaching left-exit-blockage left-exit"/>
    </vehicle>
    <vehicle id="L2-CV-221" type="L2-CV-" depart="1048.20">
        <route edges="top-approaching bottom-exit"/>
    </vehicle>
    <vehicle id="L2-CV-222" type="L2-CV-Left-" depart="1052.40">
        <route edges="left-long-approaching left-short-approaching top-exit"/>
    </vehicle>
    <vehicle id="L2-CV-223" type="L2-CV-" depart="1056.60">
        <route edges="right-approaching left-exit-blockage left-exit"/>
    </vehicle>
    <vehicle id="L2-CV-224" type="L2-CV-Right-" depart="1060.80">
        <route edges="left-long-approaching left-short-approaching bottom-exit"/>
    </vehicle>
    <vehicle id="L2-CV-227" type="L2-CV-" depart="1073.40">
        <route edges="top-approaching bottom-exit"/>
    </vehicle>
    <vehicle id="L2-CV-229" type="L2-CV-" depart="1081.80">
        <route edges="bottom-approaching left-exit-blockage left-exit"/>
    </vehicle>
    <vehicle id="L2-CV-230" type="L2-CV-" depart="1086.00">
        <route edges="bottom-approaching left-exit-blockage left-exit"/>
    </vehicle>
    <vehicle id="L2-CV-231" type="L2-CV-" depart="1090.20">
        <route edges="bottom-approaching top-exit"/>
    </vehicle>
    <vehicle id="L2-CV-232" type="L2-CV-Left-" depart="1094.40">
        <route edges="left-long-approaching left-short-approaching top-exit"/>
    </vehicle>
    <vehicle id="L2-CV-234" type="L2-CV-Left-" depart="1102.80">
        <route edges="left-long-approaching left-short-approaching top-exit"/>
    </vehicle>
    <vehicle id="L2-CV-235" type="L2-CV-" depart="1107.00">
        <route edges="bottom-approaching right-exit"/>
    </vehicle>
    <vehicle id="L2-CV-236" type="L2-CV-" depart="1111.20">
        <route edges="left-long-approaching left-short-approaching right-exit"/>
    </vehicle>
    <vehicle id="L2-CV-237" type="L2-CV-" depart="1115.40">
        <route edges="right-approaching bottom-exit"/>
    </vehicle>
    <vehicle id="L2-CV-240" type="L2-CV-Left-" depart="1128.00">
        <route edges="left-long-approaching left-short-approaching top-exit"/>
    </vehicle>
    <vehicle id="L2-CV-245" type="L2-CV-" depart="1149.00">
        <route edges="right-approaching top-exit"/>
    </vehicle>
    <vehicle id="L2-CV-246" type="L2-CV-" depart="1153.20">
        <route edges="right-approaching left-exit-blockage left-exit"/>
    </vehicle>
    <vehicle id="L2-CV-247" type="L2-CV-" depart="1157.40">
        <route edges="top-approaching bottom-exit"/>
    </vehicle>
    <vehicle id="L2-CV-248" type="L2-CV-" depart="1161.60">
        <route edges="bottom-approaching top-exit"/>
    </vehicle>
    <vehicle id="L2-CV-249" type="L2-CV-Right-" depart="1165.80">
        <route edges="left-long-approaching left-short-approaching bottom-exit"/>
    </vehicle>
    <vehicle id="L2-CV-250" type="L2-CV-" depart="1170.00">
        <route edges="right-approaching top-exit"/>
    </vehicle>
    <vehicle id="L2-CV-251" type="L2-CV-" depart="1174.20">
        <route edges="right-approaching left-exit-blockage left-exit"/>
    </vehicle>
    <vehicle id="L2-CV-253" type="L2-CV-" depart="1182.60">
        <route edges="top-approaching left-exit-blockage left-exit"/>
    </vehicle>
    <vehicle id="L2-CV-254" type="L2-CV-" depart="1186.80">
        <route edges="top-approaching bottom-exit"/>
    </vehicle>
    <vehicle id="L2-CV-256" type="L2-CV-Right-" depart="1195.20">
        <route edges="left-long-approaching left-short-approaching bottom-exit"/>
    </vehicle>
    <vehicle id="L2-CV-258" type="L2-CV-Right-" depart="1203.60">
        <route edges="left-long-approaching left-short-approaching bottom-exit"/>
    </vehicle>
    <vehicle id="L2-CV-259" type="L2-CV-" depart="1207.80">
        <route edges="bottom-approaching top-exit"/>
    </vehicle>
    <vehicle id="L2-CV-260" type="L2-CV-" depart="1212.00">
        <route edges="bottom-approaching right-exit"/>
    </vehicle>
    <vehicle id="L2-CV-261" type="L2-CV-" depart="1216.20">
        <route edges="left-long-approaching left-short-approaching right-exit"/>
    </vehicle>
    <vehicle id="L2-CV-262" type="L2-CV-" depart="1220.40">
        <route edges="bottom-approaching left-exit-blockage left-exit"/>
    </vehicle>
    <vehicle id="L2-CV-263" type="L2-CV-" depart="1224.60">
        <route edges="bottom-approaching right-exit"/>
    </vehicle>
    <vehicle id="L2-CV-264" type="L2-CV-" depart="1228.80">
        <route edges="top-approaching right-exit"/>
    </vehicle>
    <vehicle id="L2-CV-265" type="L2-CV-" depart="1233.00">
        <route edges="top-approaching bottom-exit"/>
    </vehicle>
    <vehicle id="L2-CV-266" type="L2-CV-" depart="1237.20">
        <route edges="bottom-approaching right-exit"/>
    </vehicle>
    <vehicle id="L2-CV-267" type="L2-CV-" depart="1241.40">
        <route edges="left-long-approaching left-short-approaching right-exit"/>
    </vehicle>
    <vehicle id="L2-CV-268" type="L2-CV-" depart="1245.60">
        <route edges="left-long-approaching left-short-approaching right-exit"/>
    </vehicle>
    <vehicle id="L2-CV-269" type="L2-CV-" depart="1249.80">
        <route edges="right-approaching top-exit"/>
    </vehicle>
    <vehicle id="L2-CV-271" type="L2-CV-" depart="1258.20">
        <route edges="top-approaching bottom-exit"/>
    </vehicle>
    <vehicle id="L2-CV-272" type="L2-CV-" depart="1262.40">
        <route edges="bottom-approaching left-exit-blockage left-exit"/>
    </vehicle>
    <vehicle id="L2-CV-273" type="L2-CV-" depart="1266.60">
        <route edges="bottom-approaching top-exit"/>
    </vehicle>
    <vehicle id="L2-CV-274" type="L2-CV-" depart="1270.80">
        <route edges="top-approaching left-exit-blockage left-exit"/>
    </vehicle>
    <vehicle id="L2-CV-277" type="L2-CV-" depart="1283.40">
        <route edges="left-long-approaching left-short-approaching right-exit"/>
    </vehicle>
    <vehicle id="L2-CV-279" type="L2-CV-" depart="1291.80">
        <route edges="right-approaching bottom-exit"/>
    </vehicle>
    <vehicle id="L2-CV-280" type="L2-CV-" depart="1296.00">
        <route edges="bottom-approaching left-exit-blockage left-exit"/>
    </vehicle>
    <vehicle id="L2-CV-281" type="L2-CV-Right-" depart="1300.20">
        <route edges="left-long-approaching left-short-approaching bottom-exit"/>
    </vehicle>
    <vehicle id="L2-CV-284" type="L2-CV-" depart="1312.80">
        <route edges="top-approaching right-exit"/>
    </vehicle>
    <vehicle id="L2-CV-285" type="L2-CV-" depart="1317.00">
        <route edges="top-approaching right-exit"/>
    </vehicle>
    <vehicle id="L2-CV-286" type="L2-CV-Left-" depart="1321.20">
        <route edges="left-long-approaching left-short-approaching top-exit"/>
    </vehicle>
    <vehicle id="L2-CV-287" type="L2-CV-" depart="1325.40">
        <route edges="right-approaching top-exit"/>
    </vehicle>