<?xml version="1.0" ?><!-- generated on 04/01/21 06:22:05 by Eclipse SUMO duarouter Version 1.8.0
<configuration xmlns:xsi="http://www.w3.org/2001/XMLSchema-instance" xsi:noNamespaceSchemaLocation="http://sumo.dlr.de/xsd/duarouterConfiguration.xsd">

    <input>
        <net-file value="Collision/CollisionIntersection.net.xml"/>
        <route-files value="trips.trips.xml"/>
    </input>

    <output>
        <output-file value="Collision/RealTMSPenetration3/Route-Files/L4-AV-Route.rou.xml"/>
        <alternatives-output value="Collision/RealTMSPenetration3/Route-Files/L4-AV-Route.rou.alt.xml"/>
    </output>

    <time>
        <begin value="120"/>
        <end value="3600"/>
    </time>

    <report>
        <no-warnings value="true"/>
        <ignore-errors value="true"/>
        <no-step-log value="true"/>
    </report>

</configuration>
--><routes xmlns:xsi="http://www.w3.org/2001/XMLSchema-instance" xsi:noNamespaceSchemaLocation="http://sumo.dlr.de/xsd/routes_file.xsd">
    <vehicle id="L4-AV-1" type="L4-AV-Right-" depart="128.40">
        <route edges="left-long-approaching left-short-approaching bottom-exit"/>
    </vehicle>
    <vehicle id="L4-AV-2" type="L4-AV-" depart="136.80">
        <route edges="bottom-approaching left-exit-blockage left-exit"/>
    </vehicle>
    <vehicle id="L4-AV-4" type="L4-AV-" depart="153.60">
        <route edges="top-approaching bottom-exit"/>
    </vehicle>
    <vehicle id="L4-AV-5" type="L4-AV-" depart="162.00">
        <route edges="right-approaching left-exit-blockage left-exit"/>
    </vehicle>
    <vehicle id="L4-AV-7" type="L4-AV-" depart="178.80">
        <route edges="bottom-approaching top-exit"/>
    </vehicle>
    <vehicle id="L4-AV-9" type="L4-AV-" depart="195.60">
        <route edges="top-approaching bottom-exit"/>
    </vehicle>
    <vehicle id="L4-AV-10" type="L4-AV-" depart="204.00">
        <route edges="left-long-approaching left-short-approaching right-exit"/>
    </vehicle>
    <vehicle id="L4-AV-11" type="L4-AV-" depart="212.40">
        <route edges="right-approaching top-exit"/>
    </vehicle>
    <vehicle id="L4-AV-12" type="L4-AV-" depart="220.80">
        <route edges="top-approaching bottom-exit"/>
    </vehicle>
    <vehicle id="L4-AV-14" type="L4-AV-Right-" depart="237.60">
        <route edges="left-long-approaching left-short-approaching bottom-exit"/>
    </vehicle>
    <vehicle id="L4-AV-15" type="L4-AV-Right-" depart="246.00">
        <route edges="left-long-approaching left-short-approaching bottom-exit"/>
    </vehicle>
    <vehicle id="L4-AV-17" type="L4-AV-" depart="262.80">
        <route edges="right-approaching left-exit-blockage left-exit"/>
    </vehicle>
    <vehicle id="L4-AV-18" type="L4-AV-" depart="271.20">
        <route edges="top-approaching right-exit"/>
    </vehicle>
    <vehicle id="L4-AV-20" type="L4-AV-" depart="288.00">
        <route edges="right-approaching left-exit-blockage left-exit"/>
    </vehicle>
    <vehicle id="L4-AV-21" type="L4-AV-" depart="296.40">
        <route edges="right-approaching left-exit-blockage left-exit"/>
    </vehicle>
    <vehicle id="L4-AV-22" type="L4-AV-" depart="304.80">
        <route edges="bottom-approaching left-exit-blockage left-exit"/>
    </vehicle>
    <vehicle id="L4-AV-23" type="L4-AV-" depart="313.20">
        <route edges="top-approaching bottom-exit"/>
    </vehicle>
    <vehicle id="L4-AV-24" type="L4-AV-" depart="321.60">
        <route edges="bottom-approaching right-exit"/>
    </vehicle>
    <vehicle id="L4-AV-25" type="L4-AV-" depart="330.00">
        <route edges="left-long-approaching left-short-approaching right-exit"/>
    </vehicle>
    <vehicle id="L4-AV-27" type="L4-AV-" depart="346.80">
        <route edges="top-approaching bottom-exit"/>
    </vehicle>
    <vehicle id="L4-AV-28" type="L4-AV-Right-" depart="355.20">
        <route edges="left-long-approaching left-short-approaching bottom-exit"/>
    </vehicle>
    <vehicle id="L4-AV-29" type="L4-AV-" depart="363.60">
        <route edges="right-approaching left-exit-blockage left-exit"/>
    </vehicle>
    <vehicle id="L4-AV-30" type="L4-AV-" depart="372.00">
        <route edges="left-long-approaching left-short-approaching right-exit"/>
    </vehicle>
    <vehicle id="L4-AV-31" type="L4-AV-" depart="380.40">
        <route edges="left-long-approaching left-short-approaching right-exit"/>
    </vehicle>
    <vehicle id="L4-AV-32" type="L4-AV-" depart="388.80">
        <route edges="top-approaching bottom-exit"/>
    </vehicle>
    <vehicle id="L4-AV-34" type="L4-AV-" depart="405.60">
        <route edges="top-approaching right-exit"/>
    </vehicle>
    <vehicle id="L4-AV-35" type="L4-AV-" depart="414.00">
        <route edges="bottom-approaching left-exit-blockage left-exit"/>
    </vehicle>
    <vehicle id="L4-AV-36" type="L4-AV-" depart="422.40">
        <route edges="bottom-approaching left-exit-blockage left-exit"/>
    </vehicle>
    <vehicle id="L4-AV-37" type="L4-AV-" depart="430.80">
        <route edges="bottom-approaching right-exit"/>
    </vehicle>
    <vehicle id="L4-AV-39" type="L4-AV-" depart="447.60">
        <route edges="right-approaching top-exit"/>
    </vehicle>
    <vehicle id="L4-AV-40" type="L4-AV-" depart="456.00">
        <route edges="bottom-approaching left-exit-blockage left-exit"/>
    </vehicle>
    <vehicle id="L4-AV-42" type="L4-AV-Left-" depart="472.80">
        <route edges="left-long-approaching left-short-approaching top-exit"/>
    </vehicle>
    <vehicle id="L4-AV-43" type="L4-AV-" depart="481.20">
        <route edges="right-approaching top-exit"/>
    </vehicle>
    <vehicle id="L4-AV-44" type="L4-AV-Right-" depart="489.60">
        <route edges="left-long-approaching left-short-approaching bottom-exit"/>
    </vehicle>
    <vehicle id="L4-AV-45" type="L4-AV-Right-" depart="498.00">
        <route edges="left-long-approaching left-short-approaching bottom-exit"/>
    </vehicle>
    <vehicle id="L4-AV-46" type="L4-AV-Left-" depart="506.40">
        <route edges="left-long-approaching left-short-approaching top-exit"/>
    </vehicle>
    <vehicle id="L4-AV-47" type="L4-AV-Right-" depart="514.80">
        <route edges="left-long-approaching left-short-approaching bottom-exit"/>
    </vehicle>
    <vehicle id="L4-AV-49" type="L4-AV-" depart="531.60">
        <route edges="top-approaching left-exit-blockage left-exit"/>
    </vehicle>
    <vehicle id="L4-AV-50" type="L4-AV-Right-" depart="540.00">
        <route edges="left-long-approaching left-short-approaching bottom-exit"/>
    </vehicle>
    <vehicle id="L4-AV-51" type="L4-AV-" depart="548.40">
        <route edges="top-approaching left-exit-blockage left-exit"/>
    </vehicle>
    <vehicle id="L4-AV-54" type="L4-AV-" depart="573.60">
        <route edges="right-approaching bottom-exit"/>
    </vehicle>
    <vehicle id="L4-AV-55" type="L4-AV-" depart="582.00">
        <route edges="bottom-approaching left-exit-blockage left-exit"/>
    </vehicle>
    <vehicle id="L4-AV-57" type="L4-AV-" depart="598.80">
        <route edges="bottom-approaching right-exit"/>
    </vehicle>
    <vehicle id="L4-AV-58" type="L4-AV-" depart="607.20">
        <route edges="top-approaching left-exit-blockage left-exit"/>
    </vehicle>
    <vehicle id="L4-AV-59" type="L4-AV-" depart="615.60">
        <route edges="top-approaching left-exit-blockage left-exit"/>
    </vehicle>
    <vehicle id="L4-AV-60" type="L4-AV-" depart="624.00">
        <route edges="bottom-approaching left-exit-blockage left-exit"/>
    </vehicle>
    <vehicle id="L4-AV-61" type="L4-AV-" depart="632.40">
        <route edges="bottom-approaching left-exit-blockage left-exit"/>
    </vehicle>
    <vehicle id="L4-AV-63" type="L4-AV-" depart="649.20">
        <route edges="top-approaching left-exit-blockage left-exit"/>
    </vehicle>
    <vehicle id="L4-AV-64" type="L4-AV-" depart="657.60">
        <route edges="bottom-approaching left-exit-blockage left-exit"/>
    </vehicle>
    <vehicle id="L4-AV-66" type="L4-AV-" depart="674.40">
        <route edges="bottom-approaching top-exit"/>
    </vehicle>
    <vehicle id="L4-AV-68" type="L4-AV-" depart="691.20">
        <route edges="top-approaching right-exit"/>
    </vehicle>
    <vehicle id="L4-AV-69" type="L4-AV-" depart="699.60">
        <route edges="top-approaching left-exit-blockage left-exit"/>
    </vehicle>
    <vehicle id="L4-AV-70" type="L4-AV-" depart="708.00">
        <route edges="top-approaching right-exit"/>
    </vehicle>
    <vehicle id="L4-AV-71" type="L4-AV-" depart="716.40">
        <route edges="top-approaching right-exit"/>
    </vehicle>
    <vehicle id="L4-AV-72" type="L4-AV-Right-" depart="724.80">
        <route edges="left-long-approaching left-short-approaching bottom-exit"/>
    </vehicle>
    <vehicle id="L4-AV-73" type="L4-AV-" depart="733.20">
        <route edges="bottom-approaching top-exit"/>
    </vehicle>
    <vehicle id="L4-AV-75" type="L4-AV-" depart="750.00">
        <route edges="left-long-approaching left-short-approaching right-exit"/>
    </vehicle>
    <vehicle id="L4-AV-76" type="L4-AV-" depart="758.40">
        <route edges="top-approaching right-exit"/>
    </vehicle>
    <vehicle id="L4-AV-77" type="L4-AV-" depart="766.80">
        <route edges="top-approaching right-exit"/>
    </vehicle>
    <vehicle id="L4-AV-79" type="L4-AV-Left-" depart="783.60">
        <route edges="left-long-approaching left-short-approaching top-exit"/>
    </vehicle>
    <vehicle id="L4-AV-80" type="L4-AV-" depart="792.00">
        <route edges="top-approaching bottom-exit"/>
    </vehicle>
    <vehicle id="L4-AV-82" type="L4-AV-" depart="808.80">
        <route edges="right-approaching bottom-exit"/>
    </vehicle>
    <vehicle id="L4-AV-83" type="L4-AV-" depart="817.20">
        <route edges="top-approaching bottom-exit"/>
    </vehicle>
    <vehicle id="L4-AV-84" type="L4-AV-" depart="825.60">
        <route edges="top-approaching right-exit"/>
    </vehicle>
    <vehicle id="L4-AV-87" type="L4-AV-" depart="850.80">
        <route edges="right-approaching top-exit"/>
    </vehicle>
    <vehicle id="L4-AV-89" type="L4-AV-" depart="867.60">
        <route edges="top-approaching bottom-exit"/>
    </vehicle>
    <vehicle id="L4-AV-90" type="L4-AV-" depart="876.00">
        <route edges="top-approaching bottom-exit"/>
    </vehicle>
    <vehicle id="L4-AV-92" type="L4-AV-" depart="892.80">
        <route edges="top-approaching right-exit"/>
    </vehicle>
    <vehicle id="L4-AV-93" type="L4-AV-" depart="901.20">
        <route edges="top-approaching bottom-exit"/>
    </vehicle>
    <vehicle id="L4-AV-94" type="L4-AV-" depart="909.60">
        <route edges="right-approaching left-exit-blockage left-exit"/>
    </vehicle>
    <vehicle id="L4-AV-96" type="L4-AV-" depart="926.40">
        <route edges="left-long-approaching left-short-approaching right-exit"/>
    </vehicle>
    <vehicle id="L4-AV-98" type="L4-AV-" depart="943.20">
        <route edges="right-approaching left-exit-blockage left-exit"/>
    </vehicle>
    <vehicle id="L4-AV-99" type="L4-AV-" depart="951.60">
        <route edges="top-approaching right-exit"/>
    </vehicle>
    <vehicle id="L4-AV-100" type="L4-AV-" depart="960.00">
        <route edges="bottom-approaching left-exit-blockage left-exit"/>
    </vehicle>
    <vehicle id="L4-AV-101" type="L4-AV-" depart="968.40">
        <route edges="top-approaching right-exit"/>
    </vehicle>
    <vehicle id="L4-AV-102" type="L4-AV-" depart="976.80">
        <route edges="bottom-approaching top-exit"/>
    </vehicle>
    <vehicle id="L4-AV-103" type="L4-AV-" depart="985.20">
        <route edges="top-approaching bottom-exit"/>
    </vehicle>
    <vehicle id="L4-AV-104" type="L4-AV-" depart="993.60">
        <route edges="right-approaching left-exit-blockage left-exit"/>
    </vehicle>
    <vehicle id="L4-AV-105" type="L4-AV-" depart="1002.00">
        <route edges="top-approaching left-exit-blockage left-exit"/>
    </vehicle>
    <vehicle id="L4-AV-106" type="L4-AV-" depart="1010.40">
        <route edges="bottom-approaching left-exit-blockage left-exit"/>
    </vehicle>
    <vehicle id="L4-AV-107" type="L4-AV-" depart="1018.80">
        <route edges="top-approaching bottom-exit"/>
    </vehicle>
    <vehicle id="L4-AV-108" type="L4-AV-" depart="1027.20">
        <route edges="bottom-approaching right-exit"/>
    </vehicle>
    <vehicle id="L4-AV-109" type="L4-AV-" depart="1035.60">
        <route edges="top-approaching right-exit"/>
    </vehicle>
    <vehicle id="L4-AV-110" type="L4-AV-Left-" depart="1044.00">
        <route edges="left-long-approaching left-short-approaching top-exit"/>
    </vehicle>
    <vehicle id="L4-AV-111" type="L4-AV-" depart="1052.40">
        <route edges="top-approaching bottom-exit"/>
    </vehicle>
    <vehicle id="L4-AV-112" type="L4-AV-" depart="1060.80">
        <route edges="top-approaching bottom-exit"/>
    </vehicle>
    <vehicle id="L4-AV-113" type="L4-AV-Left-" depart="1069.20">
        <route edges="left-long-approaching left-short-approaching top-exit"/>
    </vehicle>
    <vehicle id="L4-AV-114" type="L4-AV-Left-" depart="1077.60">
        <route edges="left-long-approaching left-short-approaching top-exit"/>
    </vehicle>
    <vehicle id="L4-AV-115" type="L4-AV-" depart="1086.00">
        <route edges="bottom-approaching top-exit"/>
    </vehicle>
    <vehicle id="L4-AV-118" type="L4-AV-" depart="1111.20">
        <route edges="right-approaching top-exit"/>
    </vehicle>
    <vehicle id="L4-AV-119" type="L4-AV-" depart="1119.60">
        <route edges="right-approaching bottom-exit"/>
    </vehicle>
    <vehicle id="L4-AV-120" type="L4-AV-" depart="1128.00">
        <route edges="left-long-approaching left-short-approaching right-exit"/>
    </vehicle>
    <vehicle id="L4-AV-121" type="L4-AV-" depart="1136.40">
        <route edges="left-long-approaching left-short-approaching right-exit"/>
    </vehicle>
    <vehicle id="L4-AV-122" type="L4-AV-Right-" depart="1144.80">
        <route edges="left-long-approaching left-short-approaching bottom-exit"/>
    </vehicle>
    <vehicle id="L4-AV-123" type="L4-AV-" depart="1153.20">
        <route edges="bottom-approaching top-exit"/>
    </vehicle>
    <vehicle id="L4-AV-124" type="L4-AV-Left-" depart="1161.60">
        <route edges="left-long-approaching left-short-approaching top-exit"/>
    </vehicle>
    <vehicle id="L4-AV-125" type="L4-AV-" depart="1170.00">
        <route edges="top-approaching right-exit"/>
    </vehicle>
    <vehicle id="L4-AV-127" type="L4-AV-Left-" depart="1186.80">
        <route edges="left-long-approaching left-short-approaching top-exit"/>
    </vehicle>
    <vehicle id="L4-AV-128" type="L4-AV-Left-" depart="1195.20">
        <route edges="left-long-approaching left-short-approaching top-exit"/>
    </vehicle>
    <vehicle id="L4-AV-129" type="L4-AV-Left-" depart="1203.60">
        <route edges="left-long-approaching left-short-approaching top-exit"/>
    </vehicle>
    <vehicle id="L4-AV-130" type="L4-AV-" depart="1212.00">
        <route edges="top-approaching right-exit"/>
    </vehicle>
    <vehicle id="L4-AV-131" type="L4-AV-Right-" depart="1220.40">
        <route edges="left-long-approaching left-short-approaching bottom-exit"/>
    </vehicle>
    <vehicle id="L4-AV-132" type="L4-AV-" depart="1228.80">
        <route edges="top-approaching left-exit-blockage left-exit"/>
    </vehicle>
    <vehicle id="L4-AV-133" type="L4-AV-" depart="1237.20">
        <route edges="right-approaching bottom-exit"/>
    </vehicle>
    <vehicle id="L4-AV-135" type="L4-AV-" depart="1254.00">
        <route edges="top-approaching bottom-exit"/>
    </vehicle>
    <vehicle id="L4-AV-136" type="L4-AV-" depart="1262.40">
        <route edges="top-approaching left-exit-blockage left-exit"/>
    </vehicle>
    <vehicle id="L4-AV-137" type="L4-AV-" depart="1270.80">
        <route edges="right-approaching left-exit-blockage left-exit"/>
    </vehicle>
    <vehicle id="L4-AV-138" type="L4-AV-" depart="1279.20">
        <route edges="right-approaching bottom-exit"/>
    </vehicle>
    <vehicle id="L4-AV-139" type="L4-AV-Left-" depart="1287.60">
        <route edges="left-long-approaching left-short-approaching top-exit"/>
    </vehicle>
    <vehicle id="L4-AV-140" type="L4-AV-" depart="1296.00">
        <route edges="bottom-approaching right-exit"/>
    </vehicle>
    <vehicle id="L4-AV-145" type="L4-AV-" depart="1338.00">
        <route edges="top-approaching bottom-exit"/>
    </vehicle>
    <vehicle id="L4-AV-146" type="L4-AV-" depart="1346.40">
        <route edges="right-approaching left-exit-blockage left-exit"/>
    </vehicle>
    <vehicle id="L4-AV-147" type="L4-AV-" depart="1354.80">
        <route edges="right-approaching top-exit"/>
    </vehicle>
    <vehicle id="L4-AV-149" type="L4-AV-" depart="1371.60">
        <route edges="bottom-approaching right-exit"/>
    </vehicle>
    <vehicle id="L4-AV-151" type="L4-AV-" depart="1388.40">
        <route edges="right-approaching top-exit"/>
    </vehicle>
    <vehicle id="L4-AV-152" type="L4-AV-Left-" depart="1396.80">
        <route edges="left-long-approaching left-short-approaching top-exit"/>
    </vehicle>
    <vehicle id="L4-AV-153" type="L4-AV-" depart="1405.20">
        <route edges="left-long-approaching left-short-approaching right-exit"/>
    </vehicle>
    <vehicle id="L4-AV-154" type="L4-AV-" depart="1413.60">
        <route edges="top-approaching right-exit"/>
    </vehicle>
    <vehicle id="L4-AV-155" type="L4-AV-Right-" depart="1422.00">
        <route edges="left-long-approaching left-short-approaching bottom-exit"/>
    </vehicle>
    <vehicle id="L4-AV-156" type="L4-AV-" depart="1430.40">
        <route edges="left-long-approaching left-short-approaching right-exit"/>
    </vehicle>
    <vehicle id="L4-AV-159" type="L4-AV-" depart="1455.60">
        <route edges="top-approaching left-exit-blockage left-exit"/>
    </vehicle>
    <vehicle id="L4-AV-160" type="L4-AV-Right-" depart="1464.00">
        <route edges="left-long-approaching left-short-approaching bottom-exit"/>
    </vehicle>
    <vehicle id="L4-AV-161" type="L4-AV-" depart="1472.40">
        <route edges="bottom-approaching right-exit"/>
    </vehicle>
    <vehicle id="L4-AV-163" type="L4-AV-Left-" depart="1489.20">
        <route edges="left-long-approaching left-short-approaching top-exit"/>
    </vehicle>
    <vehicle id="L4-AV-164" type="L4-AV-" depart="1497.60">
        <route edges="right-approaching bottom-exit"/>
    </vehicle>
    <vehicle id="L4-AV-165" type="L4-AV-" depart="1506.00">
        <route edges="bottom-approaching top-exit"/>
    </vehicle>
    <vehicle id="L4-AV-167" type="L4-AV-" depart="1522.80">
        <route edges="right-approaching left-exit-blockage left-exit"/>
    </vehicle>
    <vehicle id="L4-AV-168" type="L4-AV-" depart="1531.20">
        <route edges="bottom-approaching left-exit-blockage left-exit"/>
    </vehicle>
    <vehicle id="L4-AV-169" type="L4-AV-" depart="1539.60">
        <route edges="bottom-approaching top-exit"/>
    </vehicle>
    <vehicle id="L4-AV-172" type="L4-AV-Left-" depart="1564.80">
        <route edges="left-long-approaching left-short-approaching top-exit"/>
    </vehicle>
    <vehicle id="L4-AV-173" type="L4-AV-" depart="1573.20">
        <route edges="bottom-approaching top-exit"/>
    </vehicle>
    <vehicle id="L4-AV-175" type="L4-AV-" depart="1590.00">
        <route edges="top-approaching left-exit-blockage left-exit"/>
    </vehicle>
    <vehicle id="L4-AV-176" type="L4-AV-" depart="1598.40">
        <route edges="right-approaching bottom-exit"/>
    </vehicle>
    <vehicle id="L4-AV-178" type="L4-AV-Right-" depart="1615.20">
        <route edges="left-long-approaching left-short-approaching bottom-exit"/>
    </vehicle>
    <vehicle id="L4-AV-179" type="L4-AV-" depart="1623.60">
        <route edges="bottom-approaching top-exit"/>
    </vehicle>
    <vehicle id="L4-AV-180" type="L4-AV-Left-" depart="1632.00">
        <route edges="left-long-approaching left-short-approaching top-exit"/>
    </vehicle>
    <vehicle id="L4-AV-182" type="L4-AV-" depart="1648.80">
        <route edges="right-approaching top-exit"/>
    </vehicle>
    <vehicle id="L4-AV-183" type="L4-AV-" depart="1657.20">
        <route edges="top-approaching right-exit"/>
    </vehicle>
    <vehicle id="L4-AV-186" type="L4-AV-Right-" depart="1682.40">
        <route edges="left-long-approaching left-short-approaching bottom-exit"/>
    </vehicle>
    <vehicle id="L4-AV-187" type="L4-AV-" depart="1690.80">
        <route edges="top-approaching left-exit-blockage left-exit"/>
    </vehicle>
    <vehicle id="L4-AV-189" type="L4-AV-" depart="1707.60">
        <route edges="top-approaching left-exit-blockage left-exit"/>
    </vehicle>
    <vehicle id="L4-AV-190" type="L4-AV-" depart="1716.00">
        <route edges="left-long-approaching left-short-approaching right-exit"/>
    </vehicle>
    <vehicle id="L4-AV-191" type="L4-AV-" depart="1724.40">
        <route edges="top-approaching left-exit-blockage left-exit"/>
    </vehicle>
    <vehicle id="L4-AV-193" type="L4-AV-" depart="1741.20">
        <route edges="bottom-approaching top-exit"/>
    </vehicle>
    <vehicle id="L4-AV-194" type="L4-AV-" depart="1749.60">
        <route edges="bottom-approaching top-exit"/>
    </vehicle>
    <vehicle id="L4-AV-197" type="L4-AV-" depart="1774.80">
        <route edges="bottom-approaching right-exit"/>
    </vehicle>
    <vehicle id="L4-AV-198" type="L4-AV-" depart="1783.20">
        <route edges="left-long-approaching left-short-approaching right-exit"/>
    </vehicle>
    <vehicle id="L4-AV-199" type="L4-AV-" depart="1791.60">
        <route edges="bottom-approaching top-exit"/>
    </vehicle>
    <vehicle id="L4-AV-200" type="L4-AV-" depart="1800.00">
        <route edges="top-approaching right-exit"/>
    </vehicle>
    <vehicle id="L4-AV-202" type="L4-AV-Left-" depart="1816.80">
        <route edges="left-long-approaching left-short-approaching top-exit"/>
    </vehicle>
    <vehicle id="L4-AV-203" type="L4-AV-" depart="1825.20">
        <route edges="top-approaching right-exit"/>
    </vehicle>
    <vehicle id="L4-AV-204" type="L4-AV-" depart="1833.60">
        <route edges="bottom-approaching right-exit"/>
    </vehicle>
    <vehicle id="L4-AV-205" type="L4-AV-" depart="1842.00">
        <route edges="top-approaching left-exit-blockage left-exit"/>
    </vehicle>
    <vehicle id="L4-AV-206" type="L4-AV-" depart="1850.40">
        <route edges="right-approaching top-exit"/>
    </vehicle>
    <vehicle id="L4-AV-207" type="L4-AV-" depart="1858.80">
        <route edges="right-approaching bottom-exit"/>
    </vehicle>
    <vehicle id="L4-AV-208" type="L4-AV-" depart="1867.20">
        <route edges="right-approaching left-exit-blockage left-exit"/>
    </vehicle>
    <vehicle id="L4-AV-209" type="L4-AV-" depart="1875.60">
        <route edges="top-approaching right-exit"/>
    </vehicle>
    <vehicle id="L4-AV-210" type="L4-AV-Left-" depart="1884.00">
        <route edges="left-long-approaching left-short-approaching top-exit"/>
    </vehicle>
    <vehicle id="L4-AV-211" type="L4-AV-" depart="1892.40">
        <route edges="right-approaching left-exit-blockage left-exit"/>
    </vehicle>
    <vehicle id="L4-AV-216" type="L4-AV-" depart="1934.40">
        <route edges="top-approaching left-exit-blockage left-exit"/>
    </vehicle>
    <vehicle id="L4-AV-217" type="L4-AV-" depart="1942.80">
        <route edges="bottom-approaching right-exit"/>
    </vehicle>
    <vehicle id="L4-AV-218" type="L4-AV-" depart="1951.20">
        <route edges="left-long-approaching left-short-approaching right-exit"/>
    </vehicle>
    <vehicle id="L4-AV-219" type="L4-AV-" depart="1959.60">
        <route edges="right-approaching left-exit-blockage left-exit"/>
    </vehicle>
    <vehicle id="L4-AV-222" type="L4-AV-" depart="1984.80">
        <route edges="right-approaching bottom-exit"/>
    </vehicle>
    <vehicle id="L4-AV-224" type="L4-AV-" depart="2001.60">
        <route edges="right-approaching bottom-exit"/>
    </vehicle>
    <vehicle id="L4-AV-225" type="L4-AV-" depart="2010.00">
        <route edges="top-approaching right-exit"/>
    </vehicle>
    <vehicle id="L4-AV-226" type="L4-AV-" depart="2018.40">
        <route edges="right-approaching bottom-exit"/>
    </vehicle>
    <vehicle id="L4-AV-227" type="L4-AV-" depart="2026.80">
        <route edges="right-approaching bottom-exit"/>
    </vehicle>
    <vehicle id="L4-AV-228" type="L4-AV-Right-" depart="2035.20">
        <route edges="left-long-approaching left-short-approaching bottom-exit"/>
    </vehicle>
    <vehicle id="L4-AV-229" type="L4-AV-Left-" depart="2043.60">
        <route edges="left-long-approaching left-short-approaching top-exit"/>
    </vehicle>
    <vehicle id="L4-AV-230" type="L4-AV-" depart="2052.00">
        <route edges="right-approaching top-exit"/>
    </vehicle>
    <vehicle id="L4-AV-232" type="L4-AV-" depart="2068.80">
        <route edges="right-approaching bottom-exit"/>
    </vehicle>
    <vehicle id="L4-AV-233" type="L4-AV-Left-" depart="2077.20">
        <route edges="left-long-approaching left-short-approaching top-exit"/>
    </vehicle>
    <vehicle id="L4-AV-235" type="L4-AV-" depart="2094.00">
        <route edges="left-long-approaching left-short-approaching right-exit"/>
    </vehicle>
    <vehicle id="L4-AV-236" type="L4-AV-" depart="2102.40">
        <route edges="top-approaching right-exit"/>
    </vehicle>
    <vehicle id="L4-AV-237" type="L4-AV-Right-" depart="2110.80">
        <route edges="left-long-approaching left-short-approaching bottom-exit"/>
    </vehicle>
    <vehicle id="L4-AV-238" type="L4-AV-" depart="2119.20">
        <route edges="bottom-approaching top-exit"/>
    </vehicle>
    <vehicle id="L4-AV-239" type="L4-AV-" depart="2127.60">
        <route edges="top-approaching left-exit-blockage left-exit"/>
    </vehicle>
    <vehicle id="L4-AV-240" type="L4-AV-" depart="2136.00">
        <route edges="top-approaching left-exit-blockage left-exit"/>
    </vehicle>
    <vehicle id="L4-AV-241" type="L4-AV-" depart="2144.40">
        <route edges="right-approaching top-exit"/>
    </vehicle>
    <vehicle id="L4-AV-242" type="L4-AV-" depart="2152.80">
        <route edges="left-long-approaching left-short-approaching right-exit"/>
    </vehicle>
    <vehicle id="L4-AV-243" type="L4-AV-" depart="2161.20">
        <route edges="left-long-approaching left-short-approaching right-exit"/>
    </vehicle>
    <vehicle id="L4-AV-244" type="L4-AV-" depart="2169.60">
        <route edges="bottom-approaching left-exit-blockage left-exit"/>
    </vehicle>
    <vehicle id="L4-AV-245" type="L4-AV-Left-" depart="2178.00">
        <route edges="left-long-approaching left-short-approaching top-exit"/>
    </vehicle>
    <vehicle id="L4-AV-246" type="L4-AV-" depart="2186.40">
        <route edges="bottom-approaching top-exit"/>
    </vehicle>
    <vehicle id="L4-AV-247" type="L4-AV-" depart="2194.80">
        <route edges="bottom-approaching top-exit"/>
    </vehicle>
    <vehicle id="L4-AV-249" type="L4-AV-" depart="2211.60">
        <route edges="bottom-approaching top-exit"/>
    </vehicle>
    <vehicle id="L4-AV-250" type="L4-AV-" depart="2220.00">
        <route edges="right-approaching top-exit"/>
    </vehicle>
    <vehicle id="L4-AV-251" type="L4-AV-Right-" depart="2228.40">
        <route edges="left-long-approaching left-short-approaching bottom-exit"/>
    </vehicle>
    <vehicle id="L4-AV-253" type="L4-AV-" depart="2245.20">
        <route edges="top-approaching bottom-exit"/>
    </vehicle>
    <vehicle id="L4-AV-254" type="L4-AV-" depart="2253.60">
        <route edges="bottom-approaching top-exit"/>
    </vehicle>
    <vehicle id="L4-AV-255" type="L4-AV-" depart="2262.00">
        <route edges="bottom-approaching top-exit"/>
    </vehicle>
    <vehicle id="L4-AV-256" type="L4-AV-" depart="2270.40">
        <route edges="left-long-approaching left-short-approaching right-exit"/>
    </vehicle>
    <vehicle id="L4-AV-257" type="L4-AV-" depart="2278.80">
        <route edges="right-approaching top-exit"/>
    </vehicle>
    <vehicle id="L4-AV-258" type="L4-AV-" depart="2287.20">
        <route edges="bottom-approaching top-exit"/>
    </vehicle>
    <vehicle id="L4-AV-259" type="L4-AV-" depart="2295.60">
        <route edges="bottom-approaching right-exit"/>
    </vehicle>
    <vehicle id="L4-AV-260" type="L4-AV-" depart="2304.00">
        <route edges="bottom-approaching top-exit"/>
    </vehicle>
    <vehicle id="L4-AV-262" type="L4-AV-" depart="2320.80">
        <route edges="bottom-approaching left-exit-blockage left-exit"/>
    </vehicle>
    <vehicle id="L4-AV-263" type="L4-AV-Left-" depart="2329.20">
        <route edges="left-long-approaching left-short-approaching top-exit"/>
    </vehicle>
    <vehicle id="L4-AV-264" type="L4-AV-" depart="2337.60">
        <route edges="right-approaching left-exit-blockage left-exit"/>
    </vehicle>
    <vehicle id="L4-AV-265" type="L4-AV-" depart="2346.00">
        <route edges="top-approaching bottom-exit"/>
    </vehicle>
    <vehicle id="L4-AV-266" type="L4-AV-" depart="2354.40">
        <route edges="bottom-approaching top-exit"/>
    </vehicle>
    <vehicle id="L4-AV-267" type="L4-AV-" depart="2362.80">
        <route edges="top-approaching right-exit"/>
    </vehicle>
    <vehicle id="L4-AV-268" type="L4-AV-" depart="2371.20">
        <route edges="top-approaching bottom-exit"/>
    </vehicle>
    <vehicle id="L4-AV-269" type="L4-AV-" depart="2379.60">
        <route edges="top-approaching right-exit"/>
    </vehicle>
    <vehicle id="L4-AV-270" type="L4-AV-" depart="2388.00">
        <route edges="right-approaching top-exit"/>
    </vehicle>
    <vehicle id="L4-AV-272" type="L4-AV-" depart="2404.80">
        <route edges="bottom-approaching left-exit-blockage left-exit"/>
    </vehicle>