<?xml version="1.0" ?><!-- generated on 03/27/21 20:27:25 by Eclipse SUMO duarouter Version 1.8.0
<configuration xmlns:xsi="http://www.w3.org/2001/XMLSchema-instance" xsi:noNamespaceSchemaLocation="http://sumo.dlr.de/xsd/duarouterConfiguration.xsd">

    <input>
        <net-file value="Collision/CollisionIntersection.net.xml"/>
        <route-files value="trips.trips.xml"/>
    </input>

    <output>
        <output-file value="Collision/RealTMSPenetration3/Route-Files/L4-AV-Route.rou.xml"/>
        <alternatives-output value="Collision/RealTMSPenetration3/Route-Files/L4-AV-Route.rou.alt.xml"/>
    </output>

    <time>
        <begin value="120"/>
        <end value="3600"/>
    </time>

    <report>
        <no-warnings value="true"/>
        <ignore-errors value="true"/>
        <no-step-log value="true"/>
    </report>

</configuration>
--><routes xmlns:xsi="http://www.w3.org/2001/XMLSchema-instance" xsi:noNamespaceSchemaLocation="http://sumo.dlr.de/xsd/routes_file.xsd">
    <vehicle id="L4-AV-0" type="L4-AV-" depart="120.00">
        <route edges="bottom-approaching top-exit"/>
    </vehicle>
    <vehicle id="L4-AV-1" type="L4-AV-" depart="124.20">
        <route edges="top-approaching left-exit-blockage left-exit"/>
    </vehicle>
    <vehicle id="L4-AV-3" type="L4-AV-" depart="132.60">
        <route edges="right-approaching top-exit"/>
    </vehicle>
    <vehicle id="L4-AV-5" type="L4-AV-" depart="141.00">
        <route edges="top-approaching left-exit-blockage left-exit"/>
    </vehicle>
    <vehicle id="L4-AV-6" type="L4-AV-" depart="145.20">
        <route edges="top-approaching bottom-exit"/>
    </vehicle>
    <vehicle id="L4-AV-7" type="L4-AV-" depart="149.40">
        <route edges="left-long-approaching left-short-approaching right-exit"/>
    </vehicle>
    <vehicle id="L4-AV-8" type="L4-AV-" depart="153.60">
        <route edges="bottom-approaching top-exit"/>
    </vehicle>
    <vehicle id="L4-AV-9" type="L4-AV-" depart="157.80">
        <route edges="top-approaching bottom-exit"/>
    </vehicle>
    <vehicle id="L4-AV-10" type="L4-AV-" depart="162.00">
        <route edges="bottom-approaching right-exit"/>
    </vehicle>
    <vehicle id="L4-AV-11" type="L4-AV-" depart="166.20">
        <route edges="top-approaching left-exit-blockage left-exit"/>
    </vehicle>
    <vehicle id="L4-AV-12" type="L4-AV-" depart="170.40">
        <route edges="bottom-approaching left-exit-blockage left-exit"/>
    </vehicle>
    <vehicle id="L4-AV-16" type="L4-AV-" depart="187.20">
        <route edges="bottom-approaching left-exit-blockage left-exit"/>
    </vehicle>
    <vehicle id="L4-AV-17" type="L4-AV-Right-" depart="191.40">
        <route edges="left-long-approaching left-short-approaching bottom-exit"/>
    </vehicle>
    <vehicle id="L4-AV-18" type="L4-AV-" depart="195.60">
        <route edges="top-approaching right-exit"/>
    </vehicle>
    <vehicle id="L4-AV-19" type="L4-AV-" depart="199.80">
        <route edges="right-approaching bottom-exit"/>
    </vehicle>
    <vehicle id="L4-AV-21" type="L4-AV-" depart="208.20">
        <route edges="bottom-approaching left-exit-blockage left-exit"/>
    </vehicle>
    <vehicle id="L4-AV-23" type="L4-AV-" depart="216.60">
        <route edges="top-approaching left-exit-blockage left-exit"/>
    </vehicle>
    <vehicle id="L4-AV-24" type="L4-AV-" depart="220.80">
        <route edges="top-approaching right-exit"/>
    </vehicle>
    <vehicle id="L4-AV-25" type="L4-AV-" depart="225.00">
        <route edges="left-long-approaching left-short-approaching right-exit"/>
    </vehicle>
    <vehicle id="L4-AV-27" type="L4-AV-" depart="233.40">
        <route edges="left-long-approaching left-short-approaching right-exit"/>
    </vehicle>
    <vehicle id="L4-AV-29" type="L4-AV-" depart="241.80">
        <route edges="top-approaching left-exit-blockage left-exit"/>
    </vehicle>
    <vehicle id="L4-AV-30" type="L4-AV-" depart="246.00">
        <route edges="bottom-approaching right-exit"/>
    </vehicle>
    <vehicle id="L4-AV-33" type="L4-AV-" depart="258.60">
        <route edges="right-approaching top-exit"/>
    </vehicle>
    <vehicle id="L4-AV-34" type="L4-AV-" depart="262.80">
        <route edges="right-approaching left-exit-blockage left-exit"/>
    </vehicle>
    <vehicle id="L4-AV-35" type="L4-AV-Right-" depart="267.00">
        <route edges="left-long-approaching left-short-approaching bottom-exit"/>
    </vehicle>
    <vehicle id="L4-AV-36" type="L4-AV-" depart="271.20">
        <route edges="bottom-approaching right-exit"/>
    </vehicle>
    <vehicle id="L4-AV-37" type="L4-AV-" depart="275.40">
        <route edges="top-approaching right-exit"/>
    </vehicle>
    <vehicle id="L4-AV-38" type="L4-AV-Right-" depart="279.60">
        <route edges="left-long-approaching left-short-approaching bottom-exit"/>
    </vehicle>
    <vehicle id="L4-AV-39" type="L4-AV-Left-" depart="283.80">
        <route edges="left-long-approaching left-short-approaching top-exit"/>
    </vehicle>
    <vehicle id="L4-AV-40" type="L4-AV-" depart="288.00">
        <route edges="top-approaching right-exit"/>
    </vehicle>
    <vehicle id="L4-AV-41" type="L4-AV-" depart="292.20">
        <route edges="top-approaching bottom-exit"/>
    </vehicle>
    <vehicle id="L4-AV-42" type="L4-AV-" depart="296.40">
        <route edges="right-approaching top-exit"/>
    </vehicle>
    <vehicle id="L4-AV-43" type="L4-AV-" depart="300.60">
        <route edges="right-approaching left-exit-blockage left-exit"/>
    </vehicle>
    <vehicle id="L4-AV-44" type="L4-AV-" depart="304.80">
        <route edges="left-long-approaching left-short-approaching right-exit"/>
    </vehicle>
    <vehicle id="L4-AV-45" type="L4-AV-" depart="309.00">
        <route edges="top-approaching bottom-exit"/>
    </vehicle>
    <vehicle id="L4-AV-47" type="L4-AV-" depart="317.40">
        <route edges="top-approaching right-exit"/>
    </vehicle>
    <vehicle id="L4-AV-48" type="L4-AV-" depart="321.60">
        <route edges="top-approaching right-exit"/>
    </vehicle>
    <vehicle id="L4-AV-49" type="L4-AV-" depart="325.80">
        <route edges="right-approaching left-exit-blockage left-exit"/>
    </vehicle>
    <vehicle id="L4-AV-50" type="L4-AV-" depart="330.00">
        <route edges="bottom-approaching top-exit"/>
    </vehicle>
    <vehicle id="L4-AV-51" type="L4-AV-" depart="334.20">
        <route edges="right-approaching bottom-exit"/>
    </vehicle>
    <vehicle id="L4-AV-55" type="L4-AV-" depart="351.00">
        <route edges="right-approaching left-exit-blockage left-exit"/>
    </vehicle>
    <vehicle id="L4-AV-57" type="L4-AV-" depart="359.40">
        <route edges="bottom-approaching right-exit"/>
    </vehicle>
    <vehicle id="L4-AV-60" type="L4-AV-Left-" depart="372.00">
        <route edges="left-long-approaching left-short-approaching top-exit"/>
    </vehicle>
    <vehicle id="L4-AV-61" type="L4-AV-" depart="376.20">
        <route edges="right-approaching bottom-exit"/>
    </vehicle>
    <vehicle id="L4-AV-63" type="L4-AV-" depart="384.60">
        <route edges="top-approaching left-exit-blockage left-exit"/>
    </vehicle>
    <vehicle id="L4-AV-64" type="L4-AV-" depart="388.80">
        <route edges="bottom-approaching right-exit"/>
    </vehicle>
    <vehicle id="L4-AV-65" type="L4-AV-Right-" depart="393.00">
        <route edges="left-long-approaching left-short-approaching bottom-exit"/>
    </vehicle>
    <vehicle id="L4-AV-66" type="L4-AV-" depart="397.20">
        <route edges="bottom-approaching right-exit"/>
    </vehicle>
    <vehicle id="L4-AV-67" type="L4-AV-" depart="401.40">
        <route edges="bottom-approaching left-exit-blockage left-exit"/>
    </vehicle>
    <vehicle id="L4-AV-68" type="L4-AV-" depart="405.60">
        <route edges="right-approaching left-exit-blockage left-exit"/>
    </vehicle>
    <vehicle id="L4-AV-70" type="L4-AV-" depart="414.00">
        <route edges="bottom-approaching left-exit-blockage left-exit"/>
    </vehicle>
    <vehicle id="L4-AV-71" type="L4-AV-Right-" depart="418.20">
        <route edges="left-long-approaching left-short-approaching bottom-exit"/>
    </vehicle>
    <vehicle id="L4-AV-72" type="L4-AV-" depart="422.40">
        <route edges="bottom-approaching top-exit"/>
    </vehicle>
    <vehicle id="L4-AV-73" type="L4-AV-" depart="426.60">
        <route edges="right-approaching bottom-exit"/>
    </vehicle>
    <vehicle id="L4-AV-74" type="L4-AV-" depart="430.80">
        <route edges="right-approaching top-exit"/>
    </vehicle>
    <vehicle id="L4-AV-76" type="L4-AV-" depart="439.20">
        <route edges="bottom-approaching right-exit"/>
    </vehicle>
    <vehicle id="L4-AV-77" type="L4-AV-" depart="443.40">
        <route edges="bottom-approaching right-exit"/>
    </vehicle>
    <vehicle id="L4-AV-79" type="L4-AV-" depart="451.80">
        <route edges="bottom-approaching top-exit"/>
    </vehicle>
    <vehicle id="L4-AV-80" type="L4-AV-" depart="456.00">
        <route edges="top-approaching right-exit"/>
    </vehicle>
    <vehicle id="L4-AV-81" type="L4-AV-" depart="460.20">
        <route edges="bottom-approaching right-exit"/>
    </vehicle>
    <vehicle id="L4-AV-82" type="L4-AV-" depart="464.40">
        <route edges="left-long-approaching left-short-approaching right-exit"/>
    </vehicle>
    <vehicle id="L4-AV-83" type="L4-AV-" depart="468.60">
        <route edges="left-long-approaching left-short-approaching right-exit"/>
    </vehicle>
    <vehicle id="L4-AV-84" type="L4-AV-" depart="472.80">
        <route edges="bottom-approaching left-exit-blockage left-exit"/>
    </vehicle>
    <vehicle id="L4-AV-86" type="L4-AV-Left-" depart="481.20">
        <route edges="left-long-approaching left-short-approaching top-exit"/>
    </vehicle>
    <vehicle id="L4-AV-87" type="L4-AV-Left-" depart="485.40">
        <route edges="left-long-approaching left-short-approaching top-exit"/>
    </vehicle>
    <vehicle id="L4-AV-88" type="L4-AV-" depart="489.60">
        <route edges="right-approaching left-exit-blockage left-exit"/>
    </vehicle>
    <vehicle id="L4-AV-90" type="L4-AV-" depart="498.00">
        <route edges="top-approaching bottom-exit"/>
    </vehicle>
    <vehicle id="L4-AV-92" type="L4-AV-" depart="506.40">
        <route edges="right-approaching bottom-exit"/>
    </vehicle>
    <vehicle id="L4-AV-96" type="L4-AV-" depart="523.20">
        <route edges="bottom-approaching right-exit"/>
    </vehicle>
    <vehicle id="L4-AV-97" type="L4-AV-Right-" depart="527.40">
        <route edges="left-long-approaching left-short-approaching bottom-exit"/>
    </vehicle>
    <vehicle id="L4-AV-98" type="L4-AV-" depart="531.60">
        <route edges="bottom-approaching right-exit"/>
    </vehicle>
    <vehicle id="L4-AV-100" type="L4-AV-Left-" depart="540.00">
        <route edges="left-long-approaching left-short-approaching top-exit"/>
    </vehicle>
    <vehicle id="L4-AV-101" type="L4-AV-" depart="544.20">
        <route edges="top-approaching bottom-exit"/>
    </vehicle>
    <vehicle id="L4-AV-102" type="L4-AV-" depart="548.40">
        <route edges="bottom-approaching left-exit-blockage left-exit"/>
    </vehicle>
    <vehicle id="L4-AV-104" type="L4-AV-Right-" depart="556.80">
        <route edges="left-long-approaching left-short-approaching bottom-exit"/>
    </vehicle>
    <vehicle id="L4-AV-105" type="L4-AV-" depart="561.00">
        <route edges="right-approaching top-exit"/>
    </vehicle>
    <vehicle id="L4-AV-106" type="L4-AV-" depart="565.20">
        <route edges="top-approaching left-exit-blockage left-exit"/>
    </vehicle>
    <vehicle id="L4-AV-107" type="L4-AV-" depart="569.40">
        <route edges="top-approaching right-exit"/>
    </vehicle>
    <vehicle id="L4-AV-108" type="L4-AV-Left-" depart="573.60">
        <route edges="left-long-approaching left-short-approaching top-exit"/>
    </vehicle>
    <vehicle id="L4-AV-109" type="L4-AV-" depart="577.80">
        <route edges="bottom-approaching right-exit"/>
    </vehicle>
    <vehicle id="L4-AV-111" type="L4-AV-" depart="586.20">
        <route edges="top-approaching bottom-exit"/>
    </vehicle>
    <vehicle id="L4-AV-112" type="L4-AV-" depart="590.40">
        <route edges="top-approaching right-exit"/>
    </vehicle>
    <vehicle id="L4-AV-113" type="L4-AV-" depart="594.60">
        <route edges="top-approaching left-exit-blockage left-exit"/>
    </vehicle>
    <vehicle id="L4-AV-115" type="L4-AV-" depart="603.00">
        <route edges="top-approaching right-exit"/>
    </vehicle>
    <vehicle id="L4-AV-117" type="L4-AV-" depart="611.40">
        <route edges="bottom-approaching right-exit"/>
    </vehicle>
    <vehicle id="L4-AV-119" type="L4-AV-" depart="619.80">
        <route edges="bottom-approaching top-exit"/>
    </vehicle>
    <vehicle id="L4-AV-121" type="L4-AV-" depart="628.20">
        <route edges="left-long-approaching left-short-approaching right-exit"/>
    </vehicle>
    <vehicle id="L4-AV-122" type="L4-AV-" depart="632.40">
        <route edges="top-approaching left-exit-blockage left-exit"/>
    </vehicle>
    <vehicle id="L4-AV-123" type="L4-AV-" depart="636.60">
        <route edges="right-approaching bottom-exit"/>
    </vehicle>
    <vehicle id="L4-AV-124" type="L4-AV-" depart="640.80">
        <route edges="bottom-approaching left-exit-blockage left-exit"/>
    </vehicle>
    <vehicle id="L4-AV-125" type="L4-AV-" depart="645.00">
        <route edges="top-approaching right-exit"/>
    </vehicle>
    <vehicle id="L4-AV-126" type="L4-AV-" depart="649.20">
        <route edges="top-approaching left-exit-blockage left-exit"/>
    </vehicle>
    <vehicle id="L4-AV-127" type="L4-AV-Left-" depart="653.40">
        <route edges="left-long-approaching left-short-approaching top-exit"/>
    </vehicle>
    <vehicle id="L4-AV-128" type="L4-AV-" depart="657.60">
        <route edges="top-approaching bottom-exit"/>
    </vehicle>
    <vehicle id="L4-AV-129" type="L4-AV-" depart="661.80">
        <route edges="right-approaching bottom-exit"/>
    </vehicle>
    <vehicle id="L4-AV-130" type="L4-AV-" depart="666.00">
        <route edges="bottom-approaching top-exit"/>
    </vehicle>
    <vehicle id="L4-AV-132" type="L4-AV-" depart="674.40">
        <route edges="top-approaching left-exit-blockage left-exit"/>
    </vehicle>
    <vehicle id="L4-AV-134" type="L4-AV-" depart="682.80">
        <route edges="bottom-approaching right-exit"/>
    </vehicle>
    <vehicle id="L4-AV-135" type="L4-AV-" depart="687.00">
        <route edges="bottom-approaching top-exit"/>
    </vehicle>
    <vehicle id="L4-AV-136" type="L4-AV-Left-" depart="691.20">
        <route edges="left-long-approaching left-short-approaching top-exit"/>
    </vehicle>
    <vehicle id="L4-AV-137" type="L4-AV-" depart="695.40">
        <route edges="top-approaching left-exit-blockage left-exit"/>
    </vehicle>
    <vehicle id="L4-AV-139" type="L4-AV-" depart="703.80">
        <route edges="bottom-approaching right-exit"/>
    </vehicle>
    <vehicle id="L4-AV-141" type="L4-AV-" depart="712.20">
        <route edges="top-approaching left-exit-blockage left-exit"/>
    </vehicle>
    <vehicle id="L4-AV-142" type="L4-AV-" depart="716.40">
        <route edges="right-approaching left-exit-blockage left-exit"/>
    </vehicle>
    <vehicle id="L4-AV-143" type="L4-AV-Right-" depart="720.60">
        <route edges="left-long-approaching left-short-approaching bottom-exit"/>
    </vehicle>
    <vehicle id="L4-AV-145" type="L4-AV-" depart="729.00">
        <route edges="top-approaching bottom-exit"/>
    </vehicle>
    <vehicle id="L4-AV-146" type="L4-AV-" depart="733.20">
        <route edges="bottom-approaching right-exit"/>
    </vehicle>
    <vehicle id="L4-AV-147" type="L4-AV-" depart="737.40">
        <route edges="top-approaching right-exit"/>
    </vehicle>
    <vehicle id="L4-AV-149" type="L4-AV-" depart="745.80">
        <route edges="left-long-approaching left-short-approaching right-exit"/>
    </vehicle>
    <vehicle id="L4-AV-150" type="L4-AV-Right-" depart="750.00">
        <route edges="left-long-approaching left-short-approaching bottom-exit"/>
    </vehicle>
    <vehicle id="L4-AV-151" type="L4-AV-" depart="754.20">
        <route edges="bottom-approaching left-exit-blockage left-exit"/>
    </vehicle>
    <vehicle id="L4-AV-152" type="L4-AV-" depart="758.40">
        <route edges="top-approaching left-exit-blockage left-exit"/>
    </vehicle>
    <vehicle id="L4-AV-154" type="L4-AV-" depart="766.80">
        <route edges="top-approaching left-exit-blockage left-exit"/>
    </vehicle>
    <vehicle id="L4-AV-156" type="L4-AV-Left-" depart="775.20">
        <route edges="left-long-approaching left-short-approaching top-exit"/>
    </vehicle>
    <vehicle id="L4-AV-157" type="L4-AV-" depart="779.40">
        <route edges="top-approaching left-exit-blockage left-exit"/>
    </vehicle>
    <vehicle id="L4-AV-158" type="L4-AV-" depart="783.60">
        <route edges="left-long-approaching left-short-approaching right-exit"/>
    </vehicle>
    <vehicle id="L4-AV-162" type="L4-AV-" depart="800.40">
        <route edges="right-approaching bottom-exit"/>
    </vehicle>
    <vehicle id="L4-AV-163" type="L4-AV-" depart="804.60">
        <route edges="bottom-approaching right-exit"/>
    </vehicle>
    <vehicle id="L4-AV-164" type="L4-AV-Left-" depart="808.80">
        <route edges="left-long-approaching left-short-approaching top-exit"/>
    </vehicle>
    <vehicle id="L4-AV-165" type="L4-AV-Left-" depart="813.00">
        <route edges="left-long-approaching left-short-approaching top-exit"/>
    </vehicle>
    <vehicle id="L4-AV-167" type="L4-AV-" depart="821.40">
        <route edges="top-approaching bottom-exit"/>
    </vehicle>
    <vehicle id="L4-AV-168" type="L4-AV-" depart="825.60">
        <route edges="top-approaching bottom-exit"/>
    </vehicle>
    <vehicle id="L4-AV-170" type="L4-AV-" depart="834.00">
        <route edges="top-approaching left-exit-blockage left-exit"/>
    </vehicle>
    <vehicle id="L4-AV-171" type="L4-AV-" depart="838.20">
        <route edges="bottom-approaching right-exit"/>
    </vehicle>
    <vehicle id="L4-AV-172" type="L4-AV-" depart="842.40">
        <route edges="top-approaching left-exit-blockage left-exit"/>
    </vehicle>
    <vehicle id="L4-AV-173" type="L4-AV-" depart="846.60">
        <route edges="top-approaching bottom-exit"/>
    </vehicle>
    <vehicle id="L4-AV-174" type="L4-AV-" depart="850.80">
        <route edges="top-approaching bottom-exit"/>
    </vehicle>
    <vehicle id="L4-AV-175" type="L4-AV-Left-" depart="855.00">
        <route edges="left-long-approaching left-short-approaching top-exit"/>
    </vehicle>
    <vehicle id="L4-AV-177" type="L4-AV-" depart="863.40">
        <route edges="top-approaching right-exit"/>
    </vehicle>
    <vehicle id="L4-AV-178" type="L4-AV-" depart="867.60">
        <route edges="right-approaching bottom-exit"/>
    </vehicle>
    <vehicle id="L4-AV-179" type="L4-AV-Right-" depart="871.80">
        <route edges="left-long-approaching left-short-approaching bottom-exit"/>
    </vehicle>
    <vehicle id="L4-AV-184" type="L4-AV-" depart="892.80">
        <route edges="top-approaching left-exit-blockage left-exit"/>
    </vehicle>
    <vehicle id="L4-AV-186" type="L4-AV-Right-" depart="901.20">
        <route edges="left-long-approaching left-short-approaching bottom-exit"/>
    </vehicle>
    <vehicle id="L4-AV-187" type="L4-AV-" depart="905.40">
        <route edges="right-approaching left-exit-blockage left-exit"/>
    </vehicle>
    <vehicle id="L4-AV-188" type="L4-AV-" depart="909.60">
        <route edges="right-approaching bottom-exit"/>
    </vehicle>
    <vehicle id="L4-AV-189" type="L4-AV-Right-" depart="913.80">
        <route edges="left-long-approaching left-short-approaching bottom-exit"/>
    </vehicle>
    <vehicle id="L4-AV-190" type="L4-AV-" depart="918.00">
        <route edges="bottom-approaching left-exit-blockage left-exit"/>
    </vehicle>
    <vehicle id="L4-AV-191" type="L4-AV-" depart="922.20">
        <route edges="top-approaching left-exit-blockage left-exit"/>
    </vehicle>
    <vehicle id="L4-AV-192" type="L4-AV-" depart="926.40">
        <route edges="left-long-approaching left-short-approaching right-exit"/>
    </vehicle>
    <vehicle id="L4-AV-195" type="L4-AV-" depart="939.00">
        <route edges="right-approaching left-exit-blockage left-exit"/>
    </vehicle>
    <vehicle id="L4-AV-197" type="L4-AV-" depart="947.40">
        <route edges="bottom-approaching left-exit-blockage left-exit"/>
    </vehicle>
    <vehicle id="L4-AV-198" type="L4-AV-Right-" depart="951.60">
        <route edges="left-long-approaching left-short-approaching bottom-exit"/>
    </vehicle>
    <vehicle id="L4-AV-199" type="L4-AV-" depart="955.80">
        <route edges="left-long-approaching left-short-approaching right-exit"/>
    </vehicle>
    <vehicle id="L4-AV-201" type="L4-AV-" depart="964.20">
        <route edges="left-long-approaching left-short-approaching right-exit"/>
    </vehicle>
    <vehicle id="L4-AV-203" type="L4-AV-" depart="972.60">
        <route edges="right-approaching top-exit"/>
    </vehicle>
    <vehicle id="L4-AV-204" type="L4-AV-" depart="976.80">
        <route edges="bottom-approaching top-exit"/>
    </vehicle>
    <vehicle id="L4-AV-205" type="L4-AV-" depart="981.00">
        <route edges="top-approaching left-exit-blockage left-exit"/>
    </vehicle>
    <vehicle id="L4-AV-206" type="L4-AV-" depart="985.20">
        <route edges="right-approaching top-exit"/>
    </vehicle>
    <vehicle id="L4-AV-207" type="L4-AV-" depart="989.40">
        <route edges="left-long-approaching left-short-approaching right-exit"/>
    </vehicle>
    <vehicle id="L4-AV-210" type="L4-AV-" depart="1002.00">
        <route edges="top-approaching right-exit"/>
    </vehicle>
    <vehicle id="L4-AV-211" type="L4-AV-" depart="1006.20">
        <route edges="bottom-approaching left-exit-blockage left-exit"/>
    </vehicle>
    <vehicle id="L4-AV-212" type="L4-AV-" depart="1010.40">
        <route edges="bottom-approaching right-exit"/>
    </vehicle>
    <vehicle id="L4-AV-213" type="L4-AV-" depart="1014.60">
        <route edges="top-approaching bottom-exit"/>
    </vehicle>
    <vehicle id="L4-AV-215" type="L4-AV-" depart="1023.00">
        <route edges="left-long-approaching left-short-approaching right-exit"/>
    </vehicle>
    <vehicle id="L4-AV-216" type="L4-AV-" depart="1027.20">
        <route edges="bottom-approaching right-exit"/>
    </vehicle>
    <vehicle id="L4-AV-217" type="L4-AV-" depart="1031.40">
        <route edges="bottom-approaching top-exit"/>
    </vehicle>
    <vehicle id="L4-AV-218" type="L4-AV-" depart="1035.60">
        <route edges="top-approaching right-exit"/>
    </vehicle>
    <vehicle id="L4-AV-219" type="L4-AV-Left-" depart="1039.80">
        <route edges="left-long-approaching left-short-approaching top-exit"/>
    </vehicle>
    <vehicle id="L4-AV-220" type="L4-AV-" depart="1044.00">
        <route edges="top-approaching bottom-exit"/>
    </vehicle>
    <vehicle id="L4-AV-223" type="L4-AV-Left-" depart="1056.60">
        <route edges="left-long-approaching left-short-approaching top-exit"/>
    </vehicle>
    <vehicle id="L4-AV-224" type="L4-AV-" depart="1060.80">
        <route edges="top-approaching left-exit-blockage left-exit"/>
    </vehicle>
    <vehicle id="L4-AV-225" type="L4-AV-" depart="1065.00">
        <route edges="top-approaching left-exit-blockage left-exit"/>
    </vehicle>
    <vehicle id="L4-AV-226" type="L4-AV-" depart="1069.20">
        <route edges="bottom-approaching left-exit-blockage left-exit"/>
    </vehicle>
    <vehicle id="L4-AV-227" type="L4-AV-" depart="1073.40">
        <route edges="bottom-approaching top-exit"/>
    </vehicle>
    <vehicle id="L4-AV-228" type="L4-AV-" depart="1077.60">
        <route edges="top-approaching bottom-exit"/>
    </vehicle>
    <vehicle id="L4-AV-229" type="L4-AV-" depart="1081.80">
        <route edges="right-approaching left-exit-blockage left-exit"/>
    </vehicle>
    <vehicle id="L4-AV-230" type="L4-AV-" depart="1086.00">
        <route edges="bottom-approaching left-exit-blockage left-exit"/>
    </vehicle>
    <vehicle id="L4-AV-233" type="L4-AV-Right-" depart="1098.60">
        <route edges="left-long-approaching left-short-approaching bottom-exit"/>
    </vehicle>
    <vehicle id="L4-AV-235" type="L4-AV-" depart="1107.00">
        <route edges="top-approaching bottom-exit"/>
    </vehicle>
    <vehicle id="L4-AV-236" type="L4-AV-" depart="1111.20">
        <route edges="left-long-approaching left-short-approaching right-exit"/>
    </vehicle>
    <vehicle id="L4-AV-237" type="L4-AV-" depart="1115.40">
        <route edges="left-long-approaching left-short-approaching right-exit"/>
    </vehicle>
    <vehicle id="L4-AV-240" type="L4-AV-" depart="1128.00">
        <route edges="top-approaching right-exit"/>
    </vehicle>
    <vehicle id="L4-AV-241" type="L4-AV-Left-" depart="1132.20">
        <route edges="left-long-approaching left-short-approaching top-exit"/>
    </vehicle>
    <vehicle id="L4-AV-242" type="L4-AV-" depart="1136.40">
        <route edges="top-approaching right-exit"/>
    </vehicle>
    <vehicle id="L4-AV-244" type="L4-AV-" depart="1144.80">
        <route edges="bottom-approaching top-exit"/>
    </vehicle>
    <vehicle id="L4-AV-245" type="L4-AV-" depart="1149.00">
        <route edges="bottom-approaching right-exit"/>
    </vehicle>
    <vehicle id="L4-AV-246" type="L4-AV-" depart="1153.20">
        <route edges="right-approaching top-exit"/>
    </vehicle>
    <vehicle id="L4-AV-249" type="L4-AV-" depart="1165.80">
        <route edges="right-approaching left-exit-blockage left-exit"/>
    </vehicle>
    <vehicle id="L4-AV-251" type="L4-AV-" depart="1174.20">
        <route edges="right-approaching bottom-exit"/>
    </vehicle>
    <vehicle id="L4-AV-254" type="L4-AV-" depart="1186.80">
        <route edges="top-approaching right-exit"/>
    </vehicle>
    <vehicle id="L4-AV-255" type="L4-AV-" depart="1191.00">
        <route edges="left-long-approaching left-short-approaching right-exit"/>
    </vehicle>
    <vehicle id="L4-AV-256" type="L4-AV-Right-" depart="1195.20">
        <route edges="left-long-approaching left-short-approaching bottom-exit"/>
    </vehicle>
    <vehicle id="L4-AV-257" type="L4-AV-" depart="1199.40">
        <route edges="bottom-approaching left-exit-blockage left-exit"/>
    </vehicle>
    <vehicle id="L4-AV-258" type="L4-AV-" depart="1203.60">
        <route edges="right-approaching top-exit"/>
    </vehicle>
    <vehicle id="L4-AV-259" type="L4-AV-" depart="1207.80">
        <route edges="top-approaching right-exit"/>
    </vehicle>
    <vehicle id="L4-AV-260" type="L4-AV-" depart="1212.00">
        <route edges="top-approaching left-exit-blockage left-exit"/>
    </vehicle>
    <vehicle id="L4-AV-261" type="L4-AV-" depart="1216.20">
        <route edges="top-approaching left-exit-blockage left-exit"/>
    </vehicle>
    <vehicle id="L4-AV-262" type="L4-AV-" depart="1220.40">
        <route edges="right-approaching top-exit"/>
    </vehicle>
    <vehicle id="L4-AV-263" type="L4-AV-Right-" depart="1224.60">
        <route edges="left-long-approaching left-short-approaching bottom-exit"/>
    </vehicle>
    <vehicle id="L4-AV-265" type="L4-AV-Right-" depart="1233.00">
        <route edges="left-long-approaching left-short-approaching bottom-exit"/>
    </vehicle>
    <vehicle id="L4-AV-267" type="L4-AV-Left-" depart="1241.40">
        <route edges="left-long-approaching left-short-approaching top-exit"/>
    </vehicle>
    <vehicle id="L4-AV-269" type="L4-AV-" depart="1249.80">
        <route edges="top-approaching right-exit"/>
    </vehicle>
    <vehicle id="L4-AV-270" type="L4-AV-" depart="1254.00">
        <route edges="left-long-approaching left-short-approaching right-exit"/>
    </vehicle>
    <vehicle id="L4-AV-272" type="L4-AV-" depart="1262.40">
        <route edges="right-approaching left-exit-blockage left-exit"/>
    </vehicle>
    <vehicle id="L4-AV-276" type="L4-AV-" depart="1279.20">
        <route edges="top-approaching right-exit"/>
    </vehicle>
    <vehicle id="L4-AV-278" type="L4-AV-" depart="1287.60">
        <route edges="right-approaching top-exit"/>
    </vehicle>
    <vehicle id="L4-AV-279" type="L4-AV-" depart="1291.80">
        <route edges="right-approaching bottom-exit"/>
    </vehicle>
    <vehicle id="L4-AV-280" type="L4-AV-" depart="1296.00">
        <route edges="top-approaching left-exit-blockage left-exit"/>
    </vehicle>
    <vehicle id="L4-AV-281" type="L4-AV-Right-" depart="1300.20">
        <route edges="left-long-approaching left-short-approaching bottom-exit"/>
    </vehicle>
    <vehicle id="L4-AV-284" type="L4-AV-" depart="1312.80">
        <route edges="right-approaching bottom-exit"/>
    </vehicle>
    <vehicle id="L4-AV-285" type="L4-AV-" depart="1317.00">
        <route edges="right-approaching top-exit"/>
    </vehicle>
    <vehicle id="L4-AV-286" type="L4-AV-" depart="1321.20">
        <route edges="right-approaching left-exit-blockage left-exit"/>
    </vehicle>
    <vehicle id="L4-AV-289" type="L4-AV-" depart="1333.80">
        <route edges="top-approaching left-exit-blockage left-exit"/>
    </vehicle>
    <vehicle id="L4-AV-290" type="L4-AV-" depart="1338.00">
        <route edges="bottom-approaching top-exit"/>
    </vehicle>
    <vehicle id="L4-AV-291" type="L4-AV-" depart="1342.20">
        <route edges="right-approaching left-exit-blockage left-exit"/>
    </vehicle>
    <vehicle id="L4-AV-293" type="L4-AV-" depart="1350.60">
        <route edges="bottom-approaching right-exit"/>
    </vehicle>
    <vehicle id="L4-AV-294" type="L4-AV-" depart="1354.80">
        <route edges="right-approaching top-exit"/>
    </vehicle>