<?xml version="1.0" ?><!-- generated on 04/18/21 18:06:27 by Eclipse SUMO duarouter Version 1.8.0
<configuration xmlns:xsi="http://www.w3.org/2001/XMLSchema-instance" xsi:noNamespaceSchemaLocation="http://sumo.dlr.de/xsd/duarouterConfiguration.xsd">

    <input>
        <net-file value="Collision/CollisionIntersection.net.xml"/>
        <route-files value="trips.trips.xml"/>
    </input>

    <output>
        <output-file value="Collision/RealTMSPenetration3/Route-Files/L4-AV-Route.rou.xml"/>
        <alternatives-output value="Collision/RealTMSPenetration3/Route-Files/L4-AV-Route.rou.alt.xml"/>
    </output>

    <time>
        <begin value="120"/>
        <end value="3600"/>
    </time>

    <report>
        <no-warnings value="true"/>
        <ignore-errors value="true"/>
        <no-step-log value="true"/>
    </report>

</configuration>
--><routes xmlns:xsi="http://www.w3.org/2001/XMLSchema-instance" xsi:noNamespaceSchemaLocation="http://sumo.dlr.de/xsd/routes_file.xsd">
    <vehicle id="L4-AV-1" type="L4-AV-" depart="127.00">
        <route edges="bottom-approaching top-exit"/>
    </vehicle>
    <vehicle id="L4-AV-3" type="L4-AV-" depart="141.00">
        <route edges="top-approaching bottom-exit"/>
    </vehicle>
    <vehicle id="L4-AV-5" type="L4-AV-" depart="155.00">
        <route edges="bottom-approaching left-exit-blockage left-exit"/>
    </vehicle>
    <vehicle id="L4-AV-6" type="L4-AV-" depart="162.00">
        <route edges="right-approaching left-exit-blockage left-exit"/>
    </vehicle>
    <vehicle id="L4-AV-7" type="L4-AV-" depart="169.00">
        <route edges="right-approaching bottom-exit"/>
    </vehicle>
    <vehicle id="L4-AV-9" type="L4-AV-" depart="183.00">
        <route edges="right-approaching top-exit"/>
    </vehicle>
    <vehicle id="L4-AV-10" type="L4-AV-" depart="190.00">
        <route edges="right-approaching top-exit"/>
    </vehicle>
    <vehicle id="L4-AV-11" type="L4-AV-" depart="197.00">
        <route edges="left-long-approaching left-short-approaching right-exit"/>
    </vehicle>
    <vehicle id="L4-AV-12" type="L4-AV-" depart="204.00">
        <route edges="bottom-approaching left-exit-blockage left-exit"/>
    </vehicle>
    <vehicle id="L4-AV-14" type="L4-AV-Right-" depart="218.00">
        <route edges="left-long-approaching left-short-approaching bottom-exit"/>
    </vehicle>
    <vehicle id="L4-AV-15" type="L4-AV-Right-" depart="225.00">
        <route edges="left-long-approaching left-short-approaching bottom-exit"/>
    </vehicle>
    <vehicle id="L4-AV-16" type="L4-AV-Left-" depart="232.00">
        <route edges="left-long-approaching left-short-approaching top-exit"/>
    </vehicle>
    <vehicle id="L4-AV-17" type="L4-AV-" depart="239.00">
        <route edges="bottom-approaching top-exit"/>
    </vehicle>
    <vehicle id="L4-AV-18" type="L4-AV-" depart="246.00">
        <route edges="top-approaching bottom-exit"/>
    </vehicle>
    <vehicle id="L4-AV-20" type="L4-AV-" depart="260.00">
        <route edges="bottom-approaching left-exit-blockage left-exit"/>
    </vehicle>
    <vehicle id="L4-AV-21" type="L4-AV-" depart="267.00">
        <route edges="top-approaching bottom-exit"/>
    </vehicle>
    <vehicle id="L4-AV-22" type="L4-AV-" depart="274.00">
        <route edges="right-approaching bottom-exit"/>
    </vehicle>
    <vehicle id="L4-AV-23" type="L4-AV-" depart="281.00">
        <route edges="right-approaching top-exit"/>
    </vehicle>
    <vehicle id="L4-AV-25" type="L4-AV-" depart="295.00">
        <route edges="bottom-approaching right-exit"/>
    </vehicle>
    <vehicle id="L4-AV-27" type="L4-AV-Left-" depart="309.00">
        <route edges="left-long-approaching left-short-approaching top-exit"/>
    </vehicle>
    <vehicle id="L4-AV-29" type="L4-AV-" depart="323.00">
        <route edges="right-approaching bottom-exit"/>
    </vehicle>
    <vehicle id="L4-AV-30" type="L4-AV-" depart="330.00">
        <route edges="right-approaching bottom-exit"/>
    </vehicle>
    <vehicle id="L4-AV-31" type="L4-AV-" depart="337.00">
        <route edges="right-approaching top-exit"/>
    </vehicle>
    <vehicle id="L4-AV-32" type="L4-AV-" depart="344.00">
        <route edges="bottom-approaching right-exit"/>
    </vehicle>
    <vehicle id="L4-AV-33" type="L4-AV-" depart="351.00">
        <route edges="right-approaching bottom-exit"/>
    </vehicle>
    <vehicle id="L4-AV-34" type="L4-AV-Left-" depart="358.00">
        <route edges="left-long-approaching left-short-approaching top-exit"/>
    </vehicle>
    <vehicle id="L4-AV-35" type="L4-AV-" depart="365.00">
        <route edges="top-approaching bottom-exit"/>
    </vehicle>
    <vehicle id="L4-AV-36" type="L4-AV-" depart="372.00">
        <route edges="right-approaching top-exit"/>
    </vehicle>
    <vehicle id="L4-AV-37" type="L4-AV-" depart="379.00">
        <route edges="bottom-approaching right-exit"/>
    </vehicle>
    <vehicle id="L4-AV-38" type="L4-AV-" depart="386.00">
        <route edges="bottom-approaching left-exit-blockage left-exit"/>
    </vehicle>
    <vehicle id="L4-AV-40" type="L4-AV-" depart="400.00">
        <route edges="top-approaching bottom-exit"/>
    </vehicle>
    <vehicle id="L4-AV-41" type="L4-AV-Left-" depart="407.00">
        <route edges="left-long-approaching left-short-approaching top-exit"/>
    </vehicle>
    <vehicle id="L4-AV-42" type="L4-AV-" depart="414.00">
        <route edges="right-approaching left-exit-blockage left-exit"/>
    </vehicle>
    <vehicle id="L4-AV-43" type="L4-AV-Left-" depart="421.00">
        <route edges="left-long-approaching left-short-approaching top-exit"/>
    </vehicle>
    <vehicle id="L4-AV-44" type="L4-AV-" depart="428.00">
        <route edges="right-approaching bottom-exit"/>
    </vehicle>
    <vehicle id="L4-AV-45" type="L4-AV-" depart="435.00">
        <route edges="top-approaching left-exit-blockage left-exit"/>
    </vehicle>
    <vehicle id="L4-AV-46" type="L4-AV-Right-" depart="442.00">
        <route edges="left-long-approaching left-short-approaching bottom-exit"/>
    </vehicle>
    <vehicle id="L4-AV-48" type="L4-AV-" depart="456.00">
        <route edges="bottom-approaching right-exit"/>
    </vehicle>
    <vehicle id="L4-AV-49" type="L4-AV-" depart="463.00">
        <route edges="bottom-approaching top-exit"/>
    </vehicle>
    <vehicle id="L4-AV-50" type="L4-AV-" depart="470.00">
        <route edges="bottom-approaching top-exit"/>
    </vehicle>
    <vehicle id="L4-AV-51" type="L4-AV-" depart="477.00">
        <route edges="top-approaching left-exit-blockage left-exit"/>
    </vehicle>
    <vehicle id="L4-AV-52" type="L4-AV-" depart="484.00">
        <route edges="right-approaching left-exit-blockage left-exit"/>
    </vehicle>
    <vehicle id="L4-AV-53" type="L4-AV-" depart="491.00">
        <route edges="right-approaching left-exit-blockage left-exit"/>
    </vehicle>
    <vehicle id="L4-AV-54" type="L4-AV-" depart="498.00">
        <route edges="bottom-approaching top-exit"/>
    </vehicle>
    <vehicle id="L4-AV-56" type="L4-AV-" depart="512.00">
        <route edges="top-approaching left-exit-blockage left-exit"/>
    </vehicle>
    <vehicle id="L4-AV-57" type="L4-AV-" depart="519.00">
        <route edges="right-approaching bottom-exit"/>
    </vehicle>
    <vehicle id="L4-AV-58" type="L4-AV-" depart="526.00">
        <route edges="top-approaching left-exit-blockage left-exit"/>
    </vehicle>
    <vehicle id="L4-AV-59" type="L4-AV-" depart="533.00">
        <route edges="bottom-approaching top-exit"/>
    </vehicle>
    <vehicle id="L4-AV-60" type="L4-AV-" depart="540.00">
        <route edges="bottom-approaching top-exit"/>
    </vehicle>
    <vehicle id="L4-AV-61" type="L4-AV-" depart="547.00">
        <route edges="top-approaching right-exit"/>
    </vehicle>
    <vehicle id="L4-AV-63" type="L4-AV-" depart="561.00">
        <route edges="bottom-approaching left-exit-blockage left-exit"/>
    </vehicle>
    <vehicle id="L4-AV-64" type="L4-AV-" depart="568.00">
        <route edges="right-approaching top-exit"/>
    </vehicle>
    <vehicle id="L4-AV-65" type="L4-AV-Right-" depart="575.00">
        <route edges="left-long-approaching left-short-approaching bottom-exit"/>
    </vehicle>
    <vehicle id="L4-AV-66" type="L4-AV-" depart="582.00">
        <route edges="right-approaching bottom-exit"/>
    </vehicle>
    <vehicle id="L4-AV-67" type="L4-AV-" depart="589.00">
        <route edges="bottom-approaching right-exit"/>
    </vehicle>
    <vehicle id="L4-AV-68" type="L4-AV-" depart="596.00">
        <route edges="right-approaching bottom-exit"/>
    </vehicle>
    <vehicle id="L4-AV-69" type="L4-AV-" depart="603.00">
        <route edges="left-long-approaching left-short-approaching right-exit"/>
    </vehicle>
    <vehicle id="L4-AV-70" type="L4-AV-" depart="610.00">
        <route edges="top-approaching left-exit-blockage left-exit"/>
    </vehicle>
    <vehicle id="L4-AV-71" type="L4-AV-" depart="617.00">
        <route edges="top-approaching bottom-exit"/>
    </vehicle>
    <vehicle id="L4-AV-72" type="L4-AV-" depart="624.00">
        <route edges="right-approaching top-exit"/>
    </vehicle>
    <vehicle id="L4-AV-73" type="L4-AV-" depart="631.00">
        <route edges="top-approaching left-exit-blockage left-exit"/>
    </vehicle>
    <vehicle id="L4-AV-75" type="L4-AV-" depart="645.00">
        <route edges="right-approaching bottom-exit"/>
    </vehicle>
    <vehicle id="L4-AV-76" type="L4-AV-" depart="652.00">
        <route edges="right-approaching bottom-exit"/>
    </vehicle>
    <vehicle id="L4-AV-77" type="L4-AV-" depart="659.00">
        <route edges="top-approaching bottom-exit"/>
    </vehicle>
    <vehicle id="L4-AV-79" type="L4-AV-" depart="673.00">
        <route edges="left-long-approaching left-short-approaching right-exit"/>
    </vehicle>
    <vehicle id="L4-AV-80" type="L4-AV-Right-" depart="680.00">
        <route edges="left-long-approaching left-short-approaching bottom-exit"/>
    </vehicle>
    <vehicle id="L4-AV-81" type="L4-AV-Left-" depart="687.00">
        <route edges="left-long-approaching left-short-approaching top-exit"/>
    </vehicle>
    <vehicle id="L4-AV-82" type="L4-AV-" depart="694.00">
        <route edges="right-approaching top-exit"/>
    </vehicle>
    <vehicle id="L4-AV-83" type="L4-AV-" depart="701.00">
        <route edges="bottom-approaching top-exit"/>
    </vehicle>
    <vehicle id="L4-AV-84" type="L4-AV-" depart="708.00">
        <route edges="top-approaching right-exit"/>
    </vehicle>
    <vehicle id="L4-AV-86" type="L4-AV-" depart="722.00">
        <route edges="top-approaching bottom-exit"/>
    </vehicle>
    <vehicle id="L4-AV-88" type="L4-AV-" depart="736.00">
        <route edges="left-long-approaching left-short-approaching right-exit"/>
    </vehicle>
    <vehicle id="L4-AV-89" type="L4-AV-" depart="743.00">
        <route edges="right-approaching bottom-exit"/>
    </vehicle>
    <vehicle id="L4-AV-90" type="L4-AV-" depart="750.00">
        <route edges="right-approaching left-exit-blockage left-exit"/>
    </vehicle>
    <vehicle id="L4-AV-91" type="L4-AV-" depart="757.00">
        <route edges="left-long-approaching left-short-approaching right-exit"/>
    </vehicle>
    <vehicle id="L4-AV-92" type="L4-AV-" depart="764.00">
        <route edges="bottom-approaching right-exit"/>
    </vehicle>
    <vehicle id="L4-AV-93" type="L4-AV-Left-" depart="771.00">
        <route edges="left-long-approaching left-short-approaching top-exit"/>
    </vehicle>
    <vehicle id="L4-AV-94" type="L4-AV-" depart="778.00">
        <route edges="bottom-approaching top-exit"/>
    </vehicle>
    <vehicle id="L4-AV-96" type="L4-AV-" depart="792.00">
        <route edges="top-approaching bottom-exit"/>
    </vehicle>
    <vehicle id="L4-AV-98" type="L4-AV-" depart="806.00">
        <route edges="right-approaching left-exit-blockage left-exit"/>
    </vehicle>
    <vehicle id="L4-AV-100" type="L4-AV-" depart="820.00">
        <route edges="right-approaching bottom-exit"/>
    </vehicle>
    <vehicle id="L4-AV-101" type="L4-AV-" depart="827.00">
        <route edges="bottom-approaching left-exit-blockage left-exit"/>
    </vehicle>
    <vehicle id="L4-AV-102" type="L4-AV-" depart="834.00">
        <route edges="left-long-approaching left-short-approaching right-exit"/>
    </vehicle>
    <vehicle id="L4-AV-103" type="L4-AV-" depart="841.00">
        <route edges="bottom-approaching top-exit"/>
    </vehicle>
    <vehicle id="L4-AV-104" type="L4-AV-Left-" depart="848.00">
        <route edges="left-long-approaching left-short-approaching top-exit"/>
    </vehicle>
    <vehicle id="L4-AV-105" type="L4-AV-" depart="855.00">
        <route edges="bottom-approaching top-exit"/>
    </vehicle>
    <vehicle id="L4-AV-106" type="L4-AV-" depart="862.00">
        <route edges="right-approaching top-exit"/>
    </vehicle>
    <vehicle id="L4-AV-108" type="L4-AV-" depart="876.00">
        <route edges="bottom-approaching left-exit-blockage left-exit"/>
    </vehicle>
    <vehicle id="L4-AV-109" type="L4-AV-" depart="883.00">
        <route edges="bottom-approaching top-exit"/>
    </vehicle>
    <vehicle id="L4-AV-113" type="L4-AV-" depart="911.00">
        <route edges="left-long-approaching left-short-approaching right-exit"/>
    </vehicle>
    <vehicle id="L4-AV-114" type="L4-AV-" depart="918.00">
        <route edges="left-long-approaching left-short-approaching right-exit"/>
    </vehicle>
    <vehicle id="L4-AV-115" type="L4-AV-" depart="925.00">
        <route edges="left-long-approaching left-short-approaching right-exit"/>
    </vehicle>
    <vehicle id="L4-AV-116" type="L4-AV-" depart="932.00">
        <route edges="bottom-approaching left-exit-blockage left-exit"/>
    </vehicle>
    <vehicle id="L4-AV-117" type="L4-AV-" depart="939.00">
        <route edges="right-approaching bottom-exit"/>
    </vehicle>
    <vehicle id="L4-AV-118" type="L4-AV-Left-" depart="946.00">
        <route edges="left-long-approaching left-short-approaching top-exit"/>
    </vehicle>
    <vehicle id="L4-AV-120" type="L4-AV-" depart="960.00">
        <route edges="top-approaching bottom-exit"/>
    </vehicle>
    <vehicle id="L4-AV-122" type="L4-AV-" depart="974.00">
        <route edges="right-approaching bottom-exit"/>
    </vehicle>
    <vehicle id="L4-AV-123" type="L4-AV-" depart="981.00">
        <route edges="bottom-approaching left-exit-blockage left-exit"/>
    </vehicle>
    <vehicle id="L4-AV-124" type="L4-AV-Left-" depart="988.00">
        <route edges="left-long-approaching left-short-approaching top-exit"/>
    </vehicle>
    <vehicle id="L4-AV-128" type="L4-AV-" depart="1016.00">
        <route edges="top-approaching bottom-exit"/>
    </vehicle>
    <vehicle id="L4-AV-130" type="L4-AV-" depart="1030.00">
        <route edges="right-approaching left-exit-blockage left-exit"/>
    </vehicle>
    <vehicle id="L4-AV-131" type="L4-AV-Left-" depart="1037.00">
        <route edges="left-long-approaching left-short-approaching top-exit"/>
    </vehicle>
    <vehicle id="L4-AV-132" type="L4-AV-Right-" depart="1044.00">
        <route edges="left-long-approaching left-short-approaching bottom-exit"/>
    </vehicle>
    <vehicle id="L4-AV-135" type="L4-AV-Right-" depart="1065.00">
        <route edges="left-long-approaching left-short-approaching bottom-exit"/>
    </vehicle>
    <vehicle id="L4-AV-137" type="L4-AV-" depart="1079.00">
        <route edges="bottom-approaching right-exit"/>
    </vehicle>
    <vehicle id="L4-AV-138" type="L4-AV-" depart="1086.00">
        <route edges="bottom-approaching right-exit"/>
    </vehicle>
    <vehicle id="L4-AV-139" type="L4-AV-" depart="1093.00">
        <route edges="right-approaching bottom-exit"/>
    </vehicle>
    <vehicle id="L4-AV-140" type="L4-AV-" depart="1100.00">
        <route edges="right-approaching left-exit-blockage left-exit"/>
    </vehicle>
    <vehicle id="L4-AV-141" type="L4-AV-" depart="1107.00">
        <route edges="left-long-approaching left-short-approaching right-exit"/>
    </vehicle>
    <vehicle id="L4-AV-143" type="L4-AV-" depart="1121.00">
        <route edges="right-approaching bottom-exit"/>
    </vehicle>
    <vehicle id="L4-AV-144" type="L4-AV-" depart="1128.00">
        <route edges="right-approaching left-exit-blockage left-exit"/>
    </vehicle>
    <vehicle id="L4-AV-145" type="L4-AV-" depart="1135.00">
        <route edges="bottom-approaching right-exit"/>
    </vehicle>
    <vehicle id="L4-AV-146" type="L4-AV-Left-" depart="1142.00">
        <route edges="left-long-approaching left-short-approaching top-exit"/>
    </vehicle>
    <vehicle id="L4-AV-147" type="L4-AV-Left-" depart="1149.00">
        <route edges="left-long-approaching left-short-approaching top-exit"/>
    </vehicle>
    <vehicle id="L4-AV-148" type="L4-AV-" depart="1156.00">
        <route edges="right-approaching bottom-exit"/>
    </vehicle>
    <vehicle id="L4-AV-149" type="L4-AV-" depart="1163.00">
        <route edges="right-approaching left-exit-blockage left-exit"/>
    </vehicle>
    <vehicle id="L4-AV-150" type="L4-AV-" depart="1170.00">
        <route edges="right-approaching bottom-exit"/>
    </vehicle>
    <vehicle id="L4-AV-151" type="L4-AV-" depart="1177.00">
        <route edges="bottom-approaching top-exit"/>
    </vehicle>
    <vehicle id="L4-AV-155" type="L4-AV-" depart="1205.00">
        <route edges="right-approaching left-exit-blockage left-exit"/>
    </vehicle>
    <vehicle id="L4-AV-156" type="L4-AV-" depart="1212.00">
        <route edges="top-approaching right-exit"/>
    </vehicle>
    <vehicle id="L4-AV-157" type="L4-AV-" depart="1219.00">
        <route edges="bottom-approaching right-exit"/>
    </vehicle>
    <vehicle id="L4-AV-160" type="L4-AV-" depart="1240.00">
        <route edges="bottom-approaching right-exit"/>
    </vehicle>
    <vehicle id="L4-AV-161" type="L4-AV-" depart="1247.00">
        <route edges="top-approaching right-exit"/>
    </vehicle>
    <vehicle id="L4-AV-162" type="L4-AV-" depart="1254.00">
        <route edges="bottom-approaching right-exit"/>
    </vehicle>
    <vehicle id="L4-AV-163" type="L4-AV-" depart="1261.00">
        <route edges="bottom-approaching left-exit-blockage left-exit"/>
    </vehicle>
    <vehicle id="L4-AV-164" type="L4-AV-" depart="1268.00">
        <route edges="top-approaching right-exit"/>
    </vehicle>
    <vehicle id="L4-AV-166" type="L4-AV-Right-" depart="1282.00">
        <route edges="left-long-approaching left-short-approaching bottom-exit"/>
    </vehicle>
    <vehicle id="L4-AV-167" type="L4-AV-" depart="1289.00">
        <route edges="left-long-approaching left-short-approaching right-exit"/>
    </vehicle>
    <vehicle id="L4-AV-168" type="L4-AV-" depart="1296.00">
        <route edges="bottom-approaching left-exit-blockage left-exit"/>
    </vehicle>
    <vehicle id="L4-AV-169" type="L4-AV-" depart="1303.00">
        <route edges="right-approaching left-exit-blockage left-exit"/>
    </vehicle>
    <vehicle id="L4-AV-171" type="L4-AV-" depart="1317.00">
        <route edges="top-approaching bottom-exit"/>
    </vehicle>
    <vehicle id="L4-AV-172" type="L4-AV-" depart="1324.00">
        <route edges="bottom-approaching top-exit"/>
    </vehicle>
    <vehicle id="L4-AV-173" type="L4-AV-" depart="1331.00">
        <route edges="right-approaching bottom-exit"/>
    </vehicle>
    <vehicle id="L4-AV-175" type="L4-AV-" depart="1345.00">
        <route edges="right-approaching top-exit"/>
    </vehicle>
    <vehicle id="L4-AV-177" type="L4-AV-" depart="1359.00">
        <route edges="right-approaching left-exit-blockage left-exit"/>
    </vehicle>
    <vehicle id="L4-AV-179" type="L4-AV-" depart="1373.00">
        <route edges="top-approaching right-exit"/>
    </vehicle>
    <vehicle id="L4-AV-180" type="L4-AV-Right-" depart="1380.00">
        <route edges="left-long-approaching left-short-approaching bottom-exit"/>
    </vehicle>
    <vehicle id="L4-AV-181" type="L4-AV-" depart="1387.00">
        <route edges="top-approaching left-exit-blockage left-exit"/>
    </vehicle>
    <vehicle id="L4-AV-182" type="L4-AV-" depart="1394.00">
        <route edges="left-long-approaching left-short-approaching right-exit"/>
    </vehicle>
    <vehicle id="L4-AV-183" type="L4-AV-" depart="1401.00">
        <route edges="top-approaching right-exit"/>
    </vehicle>
    <vehicle id="L4-AV-185" type="L4-AV-" depart="1415.00">
        <route edges="bottom-approaching left-exit-blockage left-exit"/>
    </vehicle>
    <vehicle id="L4-AV-187" type="L4-AV-" depart="1429.00">
        <route edges="top-approaching bottom-exit"/>
    </vehicle>
    <vehicle id="L4-AV-188" type="L4-AV-" depart="1436.00">
        <route edges="right-approaching top-exit"/>
    </vehicle>
    <vehicle id="L4-AV-190" type="L4-AV-" depart="1450.00">
        <route edges="top-approaching bottom-exit"/>
    </vehicle>
    <vehicle id="L4-AV-191" type="L4-AV-" depart="1457.00">
        <route edges="bottom-approaching top-exit"/>
    </vehicle>
    <vehicle id="L4-AV-192" type="L4-AV-" depart="1464.00">
        <route edges="right-approaching bottom-exit"/>
    </vehicle>
    <vehicle id="L4-AV-193" type="L4-AV-" depart="1471.00">
        <route edges="top-approaching left-exit-blockage left-exit"/>
    </vehicle>
    <vehicle id="L4-AV-194" type="L4-AV-" depart="1478.00">
        <route edges="bottom-approaching left-exit-blockage left-exit"/>
    </vehicle>
    <vehicle id="L4-AV-195" type="L4-AV-" depart="1485.00">
        <route edges="bottom-approaching left-exit-blockage left-exit"/>
    </vehicle>
    <vehicle id="L4-AV-196" type="L4-AV-" depart="1492.00">
        <route edges="top-approaching left-exit-blockage left-exit"/>
    </vehicle>
    <vehicle id="L4-AV-197" type="L4-AV-" depart="1499.00">
        <route edges="top-approaching bottom-exit"/>
    </vehicle>
    <vehicle id="L4-AV-199" type="L4-AV-" depart="1513.00">
        <route edges="right-approaching bottom-exit"/>
    </vehicle>
    <vehicle id="L4-AV-201" type="L4-AV-" depart="1527.00">
        <route edges="right-approaching top-exit"/>
    </vehicle>
    <vehicle id="L4-AV-203" type="L4-AV-" depart="1541.00">
        <route edges="bottom-approaching left-exit-blockage left-exit"/>
    </vehicle>
    <vehicle id="L4-AV-204" type="L4-AV-" depart="1548.00">
        <route edges="top-approaching left-exit-blockage left-exit"/>
    </vehicle>
    <vehicle id="L4-AV-206" type="L4-AV-" depart="1562.00">
        <route edges="bottom-approaching top-exit"/>
    </vehicle>
    <vehicle id="L4-AV-207" type="L4-AV-" depart="1569.00">
        <route edges="right-approaching bottom-exit"/>
    </vehicle>
    <vehicle id="L4-AV-208" type="L4-AV-" depart="1576.00">
        <route edges="top-approaching right-exit"/>
    </vehicle>
    <vehicle id="L4-AV-209" type="L4-AV-" depart="1583.00">
        <route edges="left-long-approaching left-short-approaching right-exit"/>
    </vehicle>
    <vehicle id="L4-AV-210" type="L4-AV-" depart="1590.00">
        <route edges="top-approaching left-exit-blockage left-exit"/>
    </vehicle>
    <vehicle id="L4-AV-212" type="L4-AV-" depart="1604.00">
        <route edges="bottom-approaching right-exit"/>
    </vehicle>
    <vehicle id="L4-AV-213" type="L4-AV-Left-" depart="1611.00">
        <route edges="left-long-approaching left-short-approaching top-exit"/>
    </vehicle>
    <vehicle id="L4-AV-215" type="L4-AV-Right-" depart="1625.00">
        <route edges="left-long-approaching left-short-approaching bottom-exit"/>
    </vehicle>
    <vehicle id="L4-AV-216" type="L4-AV-Right-" depart="1632.00">
        <route edges="left-long-approaching left-short-approaching bottom-exit"/>
    </vehicle>
    <vehicle id="L4-AV-217" type="L4-AV-" depart="1639.00">
        <route edges="bottom-approaching right-exit"/>
    </vehicle>
    <vehicle id="L4-AV-218" type="L4-AV-" depart="1646.00">
        <route edges="top-approaching left-exit-blockage left-exit"/>
    </vehicle>
    <vehicle id="L4-AV-219" type="L4-AV-" depart="1653.00">
        <route edges="right-approaching left-exit-blockage left-exit"/>
    </vehicle>
    <vehicle id="L4-AV-220" type="L4-AV-" depart="1660.00">
        <route edges="top-approaching right-exit"/>
    </vehicle>
    <vehicle id="L4-AV-221" type="L4-AV-" depart="1667.00">
        <route edges="bottom-approaching right-exit"/>
    </vehicle>
    <vehicle id="L4-AV-223" type="L4-AV-" depart="1681.00">
        <route edges="bottom-approaching top-exit"/>
    </vehicle>
    <vehicle id="L4-AV-224" type="L4-AV-" depart="1688.00">
        <route edges="right-approaching left-exit-blockage left-exit"/>
    </vehicle>
    <vehicle id="L4-AV-226" type="L4-AV-" depart="1702.00">
        <route edges="bottom-approaching right-exit"/>
    </vehicle>
    <vehicle id="L4-AV-227" type="L4-AV-" depart="1709.00">
        <route edges="right-approaching top-exit"/>
    </vehicle>
    <vehicle id="L4-AV-228" type="L4-AV-" depart="1716.00">
        <route edges="bottom-approaching right-exit"/>
    </vehicle>
    <vehicle id="L4-AV-229" type="L4-AV-" depart="1723.00">
        <route edges="right-approaching top-exit"/>
    </vehicle>
    <vehicle id="L4-AV-230" type="L4-AV-" depart="1730.00">
        <route edges="left-long-approaching left-short-approaching right-exit"/>
    </vehicle>
    <vehicle id="L4-AV-231" type="L4-AV-" depart="1737.00">
        <route edges="top-approaching left-exit-blockage left-exit"/>
    </vehicle>
    <vehicle id="L4-AV-232" type="L4-AV-" depart="1744.00">
        <route edges="right-approaching top-exit"/>
    </vehicle>
    <vehicle id="L4-AV-233" type="L4-AV-" depart="1751.00">
        <route edges="bottom-approaching top-exit"/>
    </vehicle>
    <vehicle id="L4-AV-235" type="L4-AV-Left-" depart="1765.00">
        <route edges="left-long-approaching left-short-approaching top-exit"/>
    </vehicle>
    <vehicle id="L4-AV-237" type="L4-AV-" depart="1779.00">
        <route edges="bottom-approaching top-exit"/>
    </vehicle>
    <vehicle id="L4-AV-238" type="L4-AV-" depart="1786.00">
        <route edges="top-approaching right-exit"/>
    </vehicle>
    <vehicle id="L4-AV-239" type="L4-AV-" depart="1793.00">
        <route edges="bottom-approaching left-exit-blockage left-exit"/>
    </vehicle>
    <vehicle id="L4-AV-240" type="L4-AV-Right-" depart="1800.00">
        <route edges="left-long-approaching left-short-approaching bottom-exit"/>
    </vehicle>
    <vehicle id="L4-AV-241" type="L4-AV-" depart="1807.00">
        <route edges="top-approaching left-exit-blockage left-exit"/>
    </vehicle>
    <vehicle id="L4-AV-242" type="L4-AV-" depart="1814.00">
        <route edges="top-approaching bottom-exit"/>
    </vehicle>
    <vehicle id="L4-AV-243" type="L4-AV-" depart="1821.00">
        <route edges="right-approaching top-exit"/>
    </vehicle>
    <vehicle id="L4-AV-244" type="L4-AV-" depart="1828.00">
        <route edges="right-approaching left-exit-blockage left-exit"/>
    </vehicle>
    <vehicle id="L4-AV-245" type="L4-AV-" depart="1835.00">
        <route edges="bottom-approaching left-exit-blockage left-exit"/>
    </vehicle>
    <vehicle id="L4-AV-246" type="L4-AV-Left-" depart="1842.00">
        <route edges="left-long-approaching left-short-approaching top-exit"/>
    </vehicle>
    <vehicle id="L4-AV-248" type="L4-AV-" depart="1856.00">
        <route edges="top-approaching bottom-exit"/>
    </vehicle>
    <vehicle id="L4-AV-249" type="L4-AV-" depart="1863.00">
        <route edges="bottom-approaching left-exit-blockage left-exit"/>
    </vehicle>
    <vehicle id="L4-AV-251" type="L4-AV-" depart="1877.00">
        <route edges="right-approaching bottom-exit"/>
    </vehicle>
    <vehicle id="L4-AV-252" type="L4-AV-" depart="1884.00">
        <route edges="right-approaching left-exit-blockage left-exit"/>
    </vehicle>
    <vehicle id="L4-AV-253" type="L4-AV-Left-" depart="1891.00">
        <route edges="left-long-approaching left-short-approaching top-exit"/>
    </vehicle>
    <vehicle id="L4-AV-254" type="L4-AV-" depart="1898.00">
        <route edges="bottom-approaching top-exit"/>
    </vehicle>
    <vehicle id="L4-AV-256" type="L4-AV-" depart="1912.00">
        <route edges="bottom-approaching right-exit"/>
    </vehicle>
    <vehicle id="L4-AV-257" type="L4-AV-" depart="1919.00">
        <route edges="top-approaching bottom-exit"/>
    </vehicle>
    <vehicle id="L4-AV-258" type="L4-AV-" depart="1926.00">
        <route edges="left-long-approaching left-short-approaching right-exit"/>
    </vehicle>
    <vehicle id="L4-AV-259" type="L4-AV-" depart="1933.00">
        <route edges="left-long-approaching left-short-approaching right-exit"/>
    </vehicle>
    <vehicle id="L4-AV-260" type="L4-AV-" depart="1940.00">
        <route edges="right-approaching left-exit-blockage left-exit"/>
    </vehicle>
    <vehicle id="L4-AV-261" type="L4-AV-" depart="1947.00">
        <route edges="right-approaching top-exit"/>
    </vehicle>
    <vehicle id="L4-AV-262" type="L4-AV-" depart="1954.00">
        <route edges="left-long-approaching left-short-approaching right-exit"/>
    </vehicle>
    <vehicle id="L4-AV-263" type="L4-AV-" depart="1961.00">
        <route edges="right-approaching left-exit-blockage left-exit"/>
    </vehicle>
    <vehicle id="L4-AV-264" type="L4-AV-" depart="1968.00">
        <route edges="bottom-approaching left-exit-blockage left-exit"/>
    </vehicle>
    <vehicle id="L4-AV-265" type="L4-AV-" depart="1975.00">
        <route edges="top-approaching right-exit"/>
    </vehicle>
    <vehicle id="L4-AV-266" type="L4-AV-" depart="1982.00">
        <route edges="bottom-approaching left-exit-blockage left-exit"/>
    </vehicle>
    <vehicle id="L4-AV-268" type="L4-AV-" depart="1996.00">
        <route edges="bottom-approaching right-exit"/>
    </vehicle>
    <vehicle id="L4-AV-270" type="L4-AV-" depart="2010.00">