<?xml version="1.0" encoding="UTF-8"?>

<!-- generated on 04/17/21 13:57:20 by Eclipse SUMO GUI Version 1.8.0
<configuration xmlns:xsi="http://www.w3.org/2001/XMLSchema-instance" xsi:noNamespaceSchemaLocation="http://sumo.dlr.de/xsd/sumoConfiguration.xsd">

    <input>
        <net-file value="Roadworks\BaselinePenetration3\../RoadworksIntersection.net.xml"/>
        <route-files value="Roadworks\BaselinePenetration3\Route-Files/L4-CV-Route.rou.xml,Roadworks\BaselinePenetration3\Route-Files/L4-AV-Route.rou.xml,Roadworks\BaselinePenetration3\Route-Files/L2-CV-Route.rou.xml,Roadworks\BaselinePenetration3\Route-Files/L2-AV-Route.rou.xml,Roadworks\BaselinePenetration3\Route-Files/L0-HDV-Route.rou.xml"/>
        <additional-files value="Roadworks\BaselinePenetration3\../Additional-Files/Roadworks-Detectors.add.xml,Roadworks\BaselinePenetration3\../Additional-Files/Roadworks-Rerouters.add.xml,Roadworks\BaselinePenetration3\../Additional-Files/Roadworks-Traffic-lights.add.xml,Roadworks\BaselinePenetration3\../Additional-Files/Roadworks-Traffic-Signs.add.xml,Roadworks\BaselinePenetration3\PreparingVehicleModels/Vehicle-Models/L4-CV.add.xml,Roadworks\BaselinePenetration3\PreparingVehicleModels/Vehicle-Models/L4-CV-Left.add.xml,Roadworks\BaselinePenetration3\PreparingVehicleModels/Vehicle-Models/L4-CV-Right.add.xml,Roadworks\BaselinePenetration3\PreparingVehicleModels/Vehicle-Models/L4-AV.add.xml,Roadworks\BaselinePenetration3\PreparingVehicleModels/Vehicle-Models/L4-AV-Left.add.xml,Roadworks\BaselinePenetration3\PreparingVehicleModels/Vehicle-Models/L4-AV-Right.add.xml,Roadworks\BaselinePenetration3\PreparingVehicleModels/Vehicle-Models/L2-CV.add.xml,Roadworks\BaselinePenetration3\PreparingVehicleModels/Vehicle-Models/L2-CV-Left.add.xml,Roadworks\BaselinePenetration3\PreparingVehicleModels/Vehicle-Models/L2-CV-Right.add.xml,Roadworks\BaselinePenetration3\PreparingVehicleModels/Vehicle-Models/L2-AV.add.xml,Roadworks\BaselinePenetration3\PreparingVehicleModels/Vehicle-Models/L2-AV-Left.add.xml,Roadworks\BaselinePenetration3\PreparingVehicleModels/Vehicle-Models/L2-AV-Right.add.xml,Roadworks\BaselinePenetration3\PreparingVehicleModels/Vehicle-Models/L0-HDV.add.xml,Roadworks\BaselinePenetration3\PreparingVehicleModels/Vehicle-Models/L0-HDV-Left.add.xml,Roadworks\BaselinePenetration3\PreparingVehicleModels/Vehicle-Models/L0-HDV-Straight.add.xml"/>
    </input>

    <output>
        <tripinfo-output value="Roadworks\BaselinePenetration3\Output-Files\TripInfo.xml"/>
    </output>

    <time>
        <begin value="0"/>
        <step-length value="0.1"/>
    </time>

    <processing>
        <ignore-route-errors value="true"/>
        <waiting-time-memory value="300"/>
        <default.action-step-length value="0.1"/>
    </processing>

    <report>
        <no-warnings value="true"/>
    </report>

    <emissions>
        <device.emissions.probability value="1"/>
    </emissions>

    <traci_server>
        <remote-port value="49589"/>
    </traci_server>

    <gui_only>
        <quit-on-end value="true"/>
        <start value="true"/>
        <tracker-interval value="0.1"/>
    </gui_only>

</configuration>
-->

<tripinfos xmlns:xsi="http://www.w3.org/2001/XMLSchema-instance" xsi:noNamespaceSchemaLocation="http://sumo.dlr.de/xsd/tripinfo_file.xsd">
    <tripinfo id="L2-AV-2" depart="8.40" departLane="bottom-approaching_0" departPos="5.10" departSpeed="0.00" departDelay="0.00" arrival="78.30" arrivalLane="left-exit_0" arrivalPos="431.00" arrivalSpeed="17.18" duration="69.90" routeLength="996.90" waitingTime="0.00" waitingCount="0" stopTime="0.00" timeLoss="9.28" rerouteNo="0" devices="tripinfo_L2-AV-2 emissions_L2-AV-2 ssm_L2-AV-2 toc_L2-AV-2 driverstateL2-AV-2" vType="L2-AV-97@L2-AV-2" speedFactor="1.03" vaporized="">
        <emissions CO_abs="2198.914360" CO2_abs="239884.613699" HC_abs="13.102214" PMx_abs="3.115396" NOx_abs="85.669063" fuel_abs="103.116641" electricity_abs="0"/>
    </tripinfo>
    <tripinfo id="L4-CV-2" depart="16.80" departLane="top-approaching_0" departPos="5.10" departSpeed="0.00" departDelay="0.00" arrival="84.40" arrivalLane="right-exit_0" arrivalPos="486.40" arrivalSpeed="16.26" duration="67.60" routeLength="992.21" waitingTime="0.00" waitingCount="0" stopTime="0.00" timeLoss="5.58" rerouteNo="0" devices="tripinfo_L4-CV-2 emissions_L4-CV-2 ssm_L4-CV-2 toc_L4-CV-2 driverstateL4-CV-2" vType="L4-CV-89@L4-CV-2" speedFactor="0.98" vaporized="">
        <emissions CO_abs="1649.062624" CO2_abs="221124.556617" HC_abs="9.655779" PMx_abs="2.595979" NOx_abs="76.763727" fuel_abs="95.052476" electricity_abs="0"/>
    </tripinfo>
    <tripinfo id="L2-AV-1" depart="4.20" departLane="left-long-approaching_0" departPos="5.10" departSpeed="0.00" departDelay="0.00" arrival="89.60" arrivalLane="bottom-exit_0" arrivalPos="489.60" arrivalSpeed="16.85" duration="85.40" routeLength="983.54" waitingTime="13.60" waitingCount="1" stopTime="0.00" timeLoss="24.50" rerouteNo="0" devices="tripinfo_L2-AV-1 emissions_L2-AV-1 ssm_L2-AV-1 toc_L2-AV-1 driverstateL2-AV-1" vType="L2-AV-Right-32@L2-AV-1" speedFactor="1.01" vaporized="">
        <emissions CO_abs="4676.621694" CO2_abs="275865.327181" HC_abs="25.045663" PMx_abs="4.139362" NOx_abs="103.168592" fuel_abs="118.584194" electricity_abs="0"/>
    </tripinfo>
    <tripinfo id="L2-CV-3" depart="12.60" departLane="right-approaching_0" departPos="5.10" departSpeed="0.00" departDelay="0.00" arrival="94.90" arrivalLane="top-exit_0" arrivalPos="486.40" arrivalSpeed="15.31" duration="82.30" routeLength="979.43" waitingTime="1.40" waitingCount="1" stopTime="0.00" timeLoss="17.29" rerouteNo="0" devices="tripinfo_L2-CV-3 emissions_L2-CV-3 ssm_L2-CV-3 toc_L2-CV-3 driverstateL2-CV-3" vType="L2-CV-91@L2-CV-3" speedFactor="0.92" vaporized="">
        <emissions CO_abs="3065.877291" CO2_abs="247638.149987" HC_abs="17.299393" PMx_abs="3.100204" NOx_abs="89.292889" fuel_abs="106.450310" electricity_abs="0"/>
    </tripinfo>
    <tripinfo id="L2-AV-5" depart="21.00" departLane="right-approaching_0" departPos="5.10" departSpeed="0.00" departDelay="0.00" arrival="97.50" arrivalLane="left-exit_1" arrivalPos="431.00" arrivalSpeed="17.70" duration="76.50" routeLength="999.16" waitingTime="0.40" waitingCount="1" stopTime="0.00" timeLoss="18.12" rerouteNo="0" devices="tripinfo_L2-AV-5 emissions_L2-AV-5 ssm_L2-AV-5 toc_L2-AV-5 driverstateL2-AV-5" vType="L2-AV-54@L2-AV-5" speedFactor="1.06" vaporized="">
        <emissions CO_abs="3315.680433" CO2_abs="253085.040169" HC_abs="19.656742" PMx_abs="3.973029" NOx_abs="96.493676" fuel_abs="108.790834" electricity_abs="0"/>
    </tripinfo>
    <tripinfo id="L2-AV-9" depart="41.40" departLane="top-approaching_0" departPos="5.10" departSpeed="0.00" departDelay="3.60" arrival="103.80" arrivalLane="bottom-exit_0" arrivalPos="489.60" arrivalSpeed="17.64" duration="62.40" routeLength="970.90" waitingTime="0.00" waitingCount="0" stopTime="0.00" timeLoss="9.03" rerouteNo="0" devices="tripinfo_L2-AV-9 emissions_L2-AV-9 ssm_L2-AV-9 toc_L2-AV-9 driverstateL2-AV-9" vType="L2-AV-11@L2-AV-9" speedFactor="1.06" vaporized="">
        <emissions CO_abs="1364.580947" CO2_abs="183384.194744" HC_abs="8.560776" PMx_abs="2.331184" NOx_abs="64.483205" fuel_abs="78.829285" electricity_abs="0"/>
    </tripinfo>
    <tripinfo id="L0-HDV-3" depart="36.00" departLane="right-approaching_0" departPos="5.10" departSpeed="0.00" departDelay="0.00" arrival="104.40" arrivalLane="top-exit_0" arrivalPos="486.40" arrivalSpeed="18.23" duration="68.40" routeLength="979.43" waitingTime="0.00" waitingCount="0" stopTime="0.00" timeLoss="13.75" rerouteNo="0" devices="tripinfo_L0-HDV-3 emissions_L0-HDV-3 ssm_L0-HDV-3" vType="L0-HDV-45" speedFactor="1.09" vaporized="">
        <emissions CO_abs="2923.902810" CO2_abs="228246.748786" HC_abs="18.601256" PMx_abs="3.863383" NOx_abs="89.621810" fuel_abs="98.113522" electricity_abs="0"/>
    </tripinfo>
    <tripinfo id="L4-CV-3" depart="25.20" departLane="right-approaching_0" departPos="5.10" departSpeed="0.00" departDelay="0.00" arrival="105.10" arrivalLane="left-exit_0" arrivalPos="431.00" arrivalSpeed="15.38" duration="79.90" routeLength="999.16" waitingTime="0.00" waitingCount="0" stopTime="0.00" timeLoss="12.69" rerouteNo="0" devices="tripinfo_L4-CV-3 emissions_L4-CV-3 ssm_L4-CV-3 toc_L4-CV-3 driverstateL4-CV-3" vType="L4-CV-54@L4-CV-3" speedFactor="0.92" vaporized="">
        <emissions CO_abs="2453.887520" CO2_abs="222899.198345" HC_abs="14.605881" PMx_abs="2.842409" NOx_abs="80.923132" fuel_abs="95.815681" electricity_abs="0"/>
    </tripinfo>
    <tripinfo id="L4-AV-3" depart="25.20" departLane="left-long-approaching_0" departPos="5.10" departSpeed="0.00" departDelay="0.00" arrival="108.30" arrivalLane="top-exit_0" arrivalPos="486.40" arrivalSpeed="16.46" duration="83.10" routeLength="993.12" waitingTime="8.80" waitingCount="1" stopTime="0.00" timeLoss="20.20" rerouteNo="1" devices="tripinfo_L4-AV-3 emissions_L4-AV-3 ssm_L4-AV-3 toc_L4-AV-3 driverstateL4-AV-3" vType="L4-AV-Left-71@L4-AV-3" speedFactor="0.99" vaporized="">
        <emissions CO_abs="3834.730172" CO2_abs="260782.098042" HC_abs="20.819972" PMx_abs="3.699513" NOx_abs="96.110544" fuel_abs="112.100278" electricity_abs="0"/>
    </tripinfo>
    <tripinfo id="L2-CV-7" depart="29.40" departLane="left-long-approaching_0" departPos="5.10" departSpeed="0.00" departDelay="0.00" arrival="108.30" arrivalLane="right-exit_0" arrivalPos="486.40" arrivalSpeed="15.31" duration="78.90" routeLength="995.81" waitingTime="0.00" waitingCount="0" stopTime="0.00" timeLoss="11.78" rerouteNo="0" devices="tripinfo_L2-CV-7 emissions_L2-CV-7 ssm_L2-CV-7 toc_L2-CV-7 driverstateL2-CV-7" vType="L2-CV-40@L2-CV-7" speedFactor="0.92" vaporized="">
        <emissions CO_abs="2097.263597" CO2_abs="233284.092311" HC_abs="12.564247" PMx_abs="2.765135" NOx_abs="82.572958" fuel_abs="100.279633" electricity_abs="0"/>
    </tripinfo>
    <tripinfo id="L2-AV-11" depart="46.30" departLane="right-approaching_0" departPos="5.10" departSpeed="0.00" departDelay="0.10" arrival="115.00" arrivalLane="top-exit_0" arrivalPos="486.40" arrivalSpeed="16.91" duration="68.70" routeLength="979.43" waitingTime="0.00" waitingCount="0" stopTime="0.00" timeLoss="9.77" rerouteNo="0" devices="tripinfo_L2-AV-11 emissions_L2-AV-11 ssm_L2-AV-11 toc_L2-AV-11 driverstateL2-AV-11" vType="L2-AV-75@L2-AV-11" speedFactor="1.01" vaporized="">
        <emissions CO_abs="1933.895386" CO2_abs="230754.747641" HC_abs="12.206151" PMx_abs="2.983346" NOx_abs="82.533720" fuel_abs="99.192010" electricity_abs="0"/>
    </tripinfo>
    <tripinfo id="L4-CV-5" depart="42.00" departLane="right-approaching_0" departPos="5.10" departSpeed="0.00" departDelay="0.00" arrival="118.60" arrivalLane="bottom-exit_0" arrivalPos="489.60" arrivalSpeed="16.04" duration="76.60" routeLength="992.90" waitingTime="0.10" waitingCount="1" stopTime="0.00" timeLoss="13.68" rerouteNo="0" devices="tripinfo_L4-CV-5 emissions_L4-CV-5 ssm_L4-CV-5 toc_L4-CV-5 driverstateL4-CV-5" vType="L4-CV-95@L4-CV-5" speedFactor="0.96" vaporized="">
        <emissions CO_abs="2430.860079" CO2_abs="242156.109233" HC_abs="14.502270" PMx_abs="2.969732" NOx_abs="86.361747" fuel_abs="104.093483" electricity_abs="0"/>
    </tripinfo>
    <tripinfo id="L4-AV-4" depart="33.60" departLane="left-long-approaching_0" departPos="5.10" departSpeed="0.00" departDelay="0.00" arrival="125.30" arrivalLane="top-exit_0" arrivalPos="486.40" arrivalSpeed="13.92" duration="91.70" routeLength="993.12" waitingTime="0.90" waitingCount="1" stopTime="0.00" timeLoss="17.40" rerouteNo="1" devices="tripinfo_L4-AV-4 emissions_L4-AV-4 ssm_L4-AV-4 toc_L4-AV-4 driverstateL4-AV-4" vType="L4-AV-Left-97@L4-AV-4" speedFactor="0.83" vaporized="">
        <emissions CO_abs="3645.990838" CO2_abs="255709.644963" HC_abs="21.588345" PMx_abs="3.578602" NOx_abs="96.719920" fuel_abs="109.919845" electricity_abs="0"/>
    </tripinfo>
    <tripinfo id="L2-AV-14" depart="62.10" departLane="right-approaching_0" departPos="5.10" departSpeed="0.00" departDelay="3.30" arrival="129.50" arrivalLane="bottom-exit_0" arrivalPos="489.60" arrivalSpeed="16.92" duration="67.40" routeLength="992.90" waitingTime="0.00" waitingCount="0" stopTime="0.00" timeLoss="7.70" rerouteNo="0" devices="tripinfo_L2-AV-14 emissions_L2-AV-14 ssm_L2-AV-14 toc_L2-AV-14 driverstateL2-AV-14" vType="L2-AV-52@L2-AV-14" speedFactor="1.01" vaporized="">
        <emissions CO_abs="1705.941107" CO2_abs="220541.931285" HC_abs="10.407671" PMx_abs="2.758736" NOx_abs="77.543640" fuel_abs="94.801917" electricity_abs="0"/>
    </tripinfo>
    <tripinfo id="L2-CV-0" depart="0.00" departLane="bottom-approaching_0" departPos="5.10" departSpeed="0.00" departDelay="0.00" arrival="152.50" arrivalLane="top-exit_1" arrivalPos="486.40" arrivalSpeed="20.01" duration="152.50" routeLength="995.17" waitingTime="79.80" waitingCount="1" stopTime="0.00" timeLoss="102.67" rerouteNo="0" devices="tripinfo_L2-CV-0 emissions_L2-CV-0 ssm_L2-CV-0 toc_L2-CV-0 driverstateL2-CV-0" vType="L2-CV-0@L2-CV-0" speedFactor="1.20" vaporized="">
        <emissions CO_abs="16795.324608" CO2_abs="493303.951038" HC_abs="86.851719" PMx_abs="9.845825" NOx_abs="203.481463" fuel_abs="212.056759" electricity_abs="0"/>
    </tripinfo>
    <tripinfo id="L2-CV-10" depart="42.00" departLane="bottom-approaching_0" departPos="5.10" departSpeed="0.00" departDelay="0.00" arrival="153.00" arrivalLane="right-exit_1" arrivalPos="486.40" arrivalSpeed="17.37" duration="111.00" routeLength="979.93" waitingTime="35.90" waitingCount="2" stopTime="0.00" timeLoss="53.70" rerouteNo="0" devices="tripinfo_L2-CV-10 emissions_L2-CV-10 ssm_L2-CV-10 toc_L2-CV-10 driverstateL2-CV-10" vType="L2-CV-73@L2-CV-10" speedFactor="1.04" vaporized="">
        <emissions CO_abs="7073.710204" CO2_abs="317744.348596" HC_abs="37.308146" PMx_abs="5.269167" NOx_abs="122.628203" fuel_abs="136.587189" electricity_abs="0"/>
    </tripinfo>
    <tripinfo id="L2-AV-4" depart="19.80" departLane="top-approaching_0" departPos="5.10" departSpeed="0.00" departDelay="3.00" arrival="153.80" arrivalLane="bottom-exit_0" arrivalPos="489.60" arrivalSpeed="17.26" duration="134.00" routeLength="995.17" waitingTime="59.00" waitingCount="1" stopTime="0.00" timeLoss="76.22" rerouteNo="0" devices="tripinfo_L2-AV-4 emissions_L2-AV-4 ssm_L2-AV-4 toc_L2-AV-4 driverstateL2-AV-4" vType="L2-AV-63@L2-AV-4" speedFactor="1.04" vaporized="">
        <emissions CO_abs="12604.919167" CO2_abs="406602.319583" HC_abs="64.388047" PMx_abs="7.408403" NOx_abs="162.983654" fuel_abs="174.786052" electricity_abs="0"/>
    </tripinfo>
    <tripinfo id="L2-CV-1" depart="4.20" departLane="top-approaching_0" departPos="5.10" departSpeed="0.00" departDelay="0.00" arrival="154.40" arrivalLane="left-exit_0" arrivalPos="431.00" arrivalSpeed="16.59" duration="150.20" routeLength="986.28" waitingTime="74.70" waitingCount="1" stopTime="0.00" timeLoss="88.11" rerouteNo="0" devices="tripinfo_L2-CV-1 emissions_L2-CV-1 ssm_L2-CV-1 toc_L2-CV-1 driverstateL2-CV-1" vType="L2-CV-56@L2-CV-1" speedFactor="1.00" vaporized="">
        <emissions CO_abs="15154.081598" CO2_abs="430890.393332" HC_abs="77.349034" PMx_abs="8.337504" NOx_abs="177.590791" fuel_abs="185.227549" electricity_abs="0"/>
    </tripinfo>
    <tripinfo id="L0-HDV-0" depart="3.90" departLane="bottom-approaching_0" departPos="5.10" departSpeed="0.00" departDelay="3.90" arrival="154.50" arrivalLane="top-exit_1" arrivalPos="486.40" arrivalSpeed="19.92" duration="150.60" routeLength="995.17" waitingTime="76.80" waitingCount="1" stopTime="0.00" timeLoss="100.69" rerouteNo="0" devices="tripinfo_L0-HDV-0 emissions_L0-HDV-0 ssm_L0-HDV-0" vType="L0-HDV-30" speedFactor="1.20" vaporized="">
        <emissions CO_abs="16692.719009" CO2_abs="464564.006191" HC_abs="86.945091" PMx_abs="9.819828" NOx_abs="197.815071" fuel_abs="199.702158" electricity_abs="0"/>
    </tripinfo>
    <tripinfo id="L0-HDV-1" depart="12.00" departLane="top-approaching_0" departPos="5.10" departSpeed="0.00" departDelay="0.00" arrival="154.70" arrivalLane="left-exit_1" arrivalPos="431.00" arrivalSpeed="19.95" duration="142.70" routeLength="986.28" waitingTime="72.90" waitingCount="1" stopTime="0.00" timeLoss="91.14" rerouteNo="0" devices="tripinfo_L0-HDV-1 emissions_L0-HDV-1 ssm_L0-HDV-1" vType="L0-HDV-82" speedFactor="1.20" vaporized="">
        <emissions CO_abs="15203.659467" CO2_abs="420520.089618" HC_abs="78.744788" PMx_abs="8.818282" NOx_abs="178.425684" fuel_abs="180.769133" electricity_abs="0"/>
    </tripinfo>
    <tripinfo id="L2-CV-6" depart="25.20" departLane="top-approaching_0" departPos="5.10" departSpeed="0.00" departDelay="0.00" arrival="154.90" arrivalLane="bottom-exit_1" arrivalPos="489.60" arrivalSpeed="18.01" duration="129.70" routeLength="995.17" waitingTime="53.20" waitingCount="2" stopTime="0.00" timeLoss="74.52" rerouteNo="0" devices="tripinfo_L2-CV-6 emissions_L2-CV-6 ssm_L2-CV-6 toc_L2-CV-6 driverstateL2-CV-6" vType="L2-CV-22@L2-CV-6" speedFactor="1.08" vaporized="">
        <emissions CO_abs="9828.203858" CO2_abs="348143.822623" HC_abs="51.385155" PMx_abs="6.401605" NOx_abs="139.757550" fuel_abs="149.655731" electricity_abs="0"/>
    </tripinfo>
    <tripinfo id="L4-AV-2" depart="16.80" departLane="bottom-approaching_0" departPos="5.10" departSpeed="0.00" departDelay="0.00" arrival="157.10" arrivalLane="right-exit_0" arrivalPos="486.40" arrivalSpeed="13.99" duration="140.30" routeLength="979.93" waitingTime="58.40" waitingCount="1" stopTime="0.00" timeLoss="69.13" rerouteNo="0" devices="tripinfo_L4-AV-2 emissions_L4-AV-2 ssm_L4-AV-2 toc_L4-AV-2 driverstateL4-AV-2" vType="L4-AV-74@L4-AV-2" speedFactor="0.84" vaporized="">
        <emissions CO_abs="11765.189919" CO2_abs="382314.469563" HC_abs="60.655986" PMx_abs="6.362204" NOx_abs="150.873160" fuel_abs="164.346254" electricity_abs="0"/>
    </tripinfo>
    <tripinfo id="L2-CV-8" depart="33.60" departLane="bottom-approaching_0" departPos="5.10" departSpeed="0.00" departDelay="0.00" arrival="159.70" arrivalLane="top-exit_0" arrivalPos="486.40" arrivalSpeed="18.68" duration="126.10" routeLength="995.17" waitingTime="0.00" waitingCount="0" stopTime="0.00" timeLoss="72.73" rerouteNo="0" devices="tripinfo_L2-CV-8 emissions_L2-CV-8 ssm_L2-CV-8 toc_L2-CV-8 driverstateL2-CV-8" vType="L2-CV-74@L2-CV-8" speedFactor="1.12" vaporized="">
        <emissions CO_abs="3369.038906" CO2_abs="236881.306390" HC_abs="19.758858" PMx_abs="3.811786" NOx_abs="90.729192" fuel_abs="101.825647" electricity_abs="0"/>
    </tripinfo>
    <tripinfo id="L2-CV-9" depart="37.80" departLane="top-approaching_0" departPos="5.10" departSpeed="0.00" departDelay="0.00" arrival="160.80" arrivalLane="bottom-exit_0" arrivalPos="489.60" arrivalSpeed="15.30" duration="123.00" routeLength="995.17" waitingTime="35.10" waitingCount="25" stopTime="0.00" timeLoss="58.05" rerouteNo="0" devices="tripinfo_L2-CV-9 emissions_L2-CV-9 ssm_L2-CV-9 toc_L2-CV-9 driverstateL2-CV-9" vType="L2-CV-45@L2-CV-9" speedFactor="0.92" vaporized="">
        <emissions CO_abs="7133.559002" CO2_abs="319735.211600" HC_abs="37.858925" PMx_abs="4.810148" NOx_abs="121.566736" fuel_abs="137.443686" electricity_abs="0"/>
    </tripinfo>
    <tripinfo id="L0-HDV-8" depart="96.00" departLane="bottom-approaching_0" departPos="5.10" departSpeed="0.00" departDelay="0.00" arrival="161.80" arrivalLane="top-exit_1" arrivalPos="486.40" arrivalSpeed="20.23" duration="65.80" routeLength="995.17" waitingTime="0.00" waitingCount="0" stopTime="0.00" timeLoss="16.72" rerouteNo="0" devices="tripinfo_L0-HDV-8 emissions_L0-HDV-8 ssm_L0-HDV-8" vType="L0-HDV-23" speedFactor="1.22" vaporized="">
        <emissions CO_abs="2879.481961" CO2_abs="233765.883639" HC_abs="18.605996" PMx_abs="4.070644" NOx_abs="92.037620" fuel_abs="100.485750" electricity_abs="0"/>
    </tripinfo>
    <tripinfo id="L2-AV-7" depart="29.40" departLane="bottom-approaching_0" departPos="5.10" departSpeed="0.00" departDelay="0.00" arrival="162.60" arrivalLane="top-exit_0" arrivalPos="486.40" arrivalSpeed="14.80" duration="133.20" routeLength="995.17" waitingTime="0.00" waitingCount="0" stopTime="0.00" timeLoss="65.91" rerouteNo="0" devices="tripinfo_L2-AV-7 emissions_L2-AV-7 ssm_L2-AV-7 toc_L2-AV-7 driverstateL2-AV-7" vType="L2-AV-84@L2-AV-7" speedFactor="0.89" vaporized="">
        <emissions CO_abs="2774.618563" CO2_abs="233340.886921" HC_abs="15.887081" PMx_abs="2.858938" NOx_abs="83.910664" fuel_abs="100.304456" electricity_abs="0"/>
    </tripinfo>
    <tripinfo id="L0-HDV-6" depart="72.00" departLane="top-approaching_0" departPos="5.10" departSpeed="0.00" departDelay="0.00" arrival="163.00" arrivalLane="bottom-exit_1" arrivalPos="489.60" arrivalSpeed="17.72" duration="91.00" routeLength="995.17" waitingTime="0.00" waitingCount="0" stopTime="0.00" timeLoss="34.87" rerouteNo="0" devices="tripinfo_L0-HDV-6 emissions_L0-HDV-6 ssm_L0-HDV-6" vType="L0-HDV-10" speedFactor="1.06" vaporized="">
        <emissions CO_abs="4356.246470" CO2_abs="243774.166339" HC_abs="25.269648" PMx_abs="4.019470" NOx_abs="95.717255" fuel_abs="104.789215" electricity_abs="0"/>
    </tripinfo>
    <tripinfo id="L4-AV-12" depart="100.80" departLane="bottom-approaching_0" departPos="5.10" departSpeed="0.00" departDelay="0.00" arrival="165.10" arrivalLane="top-exit_1" arrivalPos="486.40" arrivalSpeed="17.47" duration="64.30" routeLength="995.17" waitingTime="0.00" waitingCount="0" stopTime="0.00" timeLoss="7.28" rerouteNo="0" devices="tripinfo_L4-AV-12 emissions_L4-AV-12 ssm_L4-AV-12 toc_L4-AV-12 driverstateL4-AV-12" vType="L4-AV-57@L4-AV-12" speedFactor="1.05" vaporized="">
        <emissions CO_abs="1507.041264" CO2_abs="183868.672201" HC_abs="9.648742" PMx_abs="2.483857" NOx_abs="65.973812" fuel_abs="79.037477" electricity_abs="0"/>
    </tripinfo>
    <tripinfo id="L2-CV-5" depart="21.00" departLane="top-approaching_0" departPos="5.10" departSpeed="0.00" departDelay="0.00" arrival="165.20" arrivalLane="left-exit_0" arrivalPos="431.00" arrivalSpeed="15.50" duration="144.20" routeLength="986.28" waitingTime="56.60" waitingCount="2" stopTime="0.00" timeLoss="77.90" rerouteNo="0" devices="tripinfo_L2-CV-5 emissions_L2-CV-5 ssm_L2-CV-5 toc_L2-CV-5 driverstateL2-CV-5" vType="L2-CV-46@L2-CV-5" speedFactor="0.93" vaporized="">
        <emissions CO_abs="10892.281939" CO2_abs="361628.284837" HC_abs="56.416900" PMx_abs="6.343018" NOx_abs="144.641688" fuel_abs="155.453172" electricity_abs="0"/>
    </tripinfo>
    <tripinfo id="L2-AV-12" depart="50.40" departLane="top-approaching_0" departPos="5.10" departSpeed="0.00" departDelay="0.00" arrival="166.00" arrivalLane="bottom-exit_0" arrivalPos="489.60" arrivalSpeed="13.66" duration="115.60" routeLength="995.17" waitingTime="0.00" waitingCount="0" stopTime="0.00" timeLoss="42.72" rerouteNo="0" devices="tripinfo_L2-AV-12 emissions_L2-AV-12 ssm_L2-AV-12 toc_L2-AV-12 driverstateL2-AV-12" vType="L2-AV-81@L2-AV-12" speedFactor="0.82" vaporized="">
        <emissions CO_abs="2433.704573" CO2_abs="227666.232999" HC_abs="14.939285" PMx_abs="2.538845" NOx_abs="80.758253" fuel_abs="97.865371" electricity_abs="0"/>
    </tripinfo>
    <tripinfo id="L0-HDV-5" depart="60.00" departLane="top-approaching_0" departPos="5.10" departSpeed="0.00" departDelay="0.00" arrival="166.00" arrivalLane="left-exit_1" arrivalPos="431.00" arrivalSpeed="19.86" duration="106.00" routeLength="986.28" waitingTime="26.50" waitingCount="1" stopTime="0.00" timeLoss="54.42" rerouteNo="0" devices="tripinfo_L0-HDV-5 emissions_L0-HDV-5 ssm_L0-HDV-5" vType="L0-HDV-22" speedFactor="1.20" vaporized="">
        <emissions CO_abs="6779.093140" CO2_abs="324274.394995" HC_abs="38.546841" PMx_abs="6.431587" NOx_abs="135.008822" fuel_abs="139.392360" electricity_abs="0"/>
    </tripinfo>
    <tripinfo id="L2-CV-11" depart="46.20" departLane="top-approaching_0" departPos="5.10" departSpeed="0.00" departDelay="0.00" arrival="167.90" arrivalLane="left-exit_0" arrivalPos="431.00" arrivalSpeed="15.02" duration="121.70" routeLength="986.28" waitingTime="28.10" waitingCount="26" stopTime="0.00" timeLoss="53.27" rerouteNo="0" devices="tripinfo_L2-CV-11 emissions_L2-CV-11 ssm_L2-CV-11 toc_L2-CV-11 driverstateL2-CV-11" vType="L2-CV-39@L2-CV-11" speedFactor="0.90" vaporized="">
        <emissions CO_abs="6465.078496" CO2_abs="286900.854262" HC_abs="34.533125" PMx_abs="4.411061" NOx_abs="110.343412" fuel_abs="123.329164" electricity_abs="0"/>
    </tripinfo>
    <tripinfo id="L4-AV-8" depart="67.20" departLane="bottom-approaching_0" departPos="5.10" departSpeed="0.00" departDelay="0.00" arrival="168.00" arrivalLane="right-exit_0" arrivalPos="486.40" arrivalSpeed="12.85" duration="100.80" routeLength="979.93" waitingTime="0.00" waitingCount="0" stopTime="0.00" timeLoss="23.35" rerouteNo="0" devices="tripinfo_L4-AV-8 emissions_L4-AV-8 ssm_L4-AV-8 toc_L4-AV-8 driverstateL4-AV-8" vType="L4-AV-71@L4-AV-8" speedFactor="0.77" vaporized="">
        <emissions CO_abs="2420.401878" CO2_abs="232531.104723" HC_abs="15.990882" PMx_abs="2.558801" NOx_abs="83.053568" fuel_abs="99.956713" electricity_abs="0"/>
    </tripinfo>
    <tripinfo id="L2-AV-23" depart="99.40" departLane="top-approaching_0" departPos="5.10" departSpeed="0.00" departDelay="2.80" arrival="169.50" arrivalLane="bottom-exit_0" arrivalPos="489.60" arrivalSpeed="16.78" duration="70.10" routeLength="995.17" waitingTime="0.10" waitingCount="1" stopTime="0.00" timeLoss="10.73" rerouteNo="0" devices="tripinfo_L2-AV-23 emissions_L2-AV-23 ssm_L2-AV-23 toc_L2-AV-23 driverstateL2-AV-23" vType="L2-AV-92@L2-AV-23" speedFactor="1.01" vaporized="">
        <emissions CO_abs="1712.983352" CO2_abs="213090.249973" HC_abs="10.115459" PMx_abs="2.363900" NOx_abs="72.580266" fuel_abs="91.599267" electricity_abs="0"/>
    </tripinfo>
    <tripinfo id="L2-AV-24" depart="100.90" departLane="bottom-approaching_0" departPos="5.10" departSpeed="0.00" departDelay="0.10" arrival="172.50" arrivalLane="right-exit_0" arrivalPos="486.40" arrivalSpeed="15.48" duration="71.60" routeLength="979.93" waitingTime="0.00" waitingCount="0" stopTime="0.00" timeLoss="7.36" rerouteNo="0" devices="tripinfo_L2-AV-24 emissions_L2-AV-24 ssm_L2-AV-24 toc_L2-AV-24 driverstateL2-AV-24" vType="L2-AV-19@L2-AV-24" speedFactor="0.93" vaporized="">
        <emissions CO_abs="1781.878570" CO2_abs="223161.496906" HC_abs="10.742692" PMx_abs="2.584005" NOx_abs="78.202394" fuel_abs="95.928222" electricity_abs="0"/>
    </tripinfo>
    <tripinfo id="L4-AV-9" depart="76.30" departLane="top-approaching_0" departPos="5.10" departSpeed="0.00" departDelay="0.70" arrival="174.30" arrivalLane="left-exit_0" arrivalPos="431.00" arrivalSpeed="17.01" duration="98.00" routeLength="986.28" waitingTime="0.10" waitingCount="1" stopTime="0.00" timeLoss="37.43" rerouteNo="0" devices="tripinfo_L4-AV-9 emissions_L4-AV-9 ssm_L4-AV-9 toc_L4-AV-9 driverstateL4-AV-9" vType="L0-HDV-90" speedFactor="1.02" vaporized="">
        <emissions CO_abs="4367.479359" CO2_abs="238653.787260" HC_abs="25.145183" PMx_abs="4.005580" NOx_abs="95.051775" fuel_abs="102.588035" electricity_abs="0"/>
    </tripinfo>
    <tripinfo id="L4-CV-8" depart="67.20" departLane="top-approaching_0" departPos="5.10" departSpeed="0.00" departDelay="0.00" arrival="175.70" arrivalLane="right-exit_1" arrivalPos="486.40" arrivalSpeed="18.26" duration="108.50" routeLength="992.21" waitingTime="25.50" waitingCount="3" stopTime="0.00" timeLoss="53.24" rerouteNo="0" devices="tripinfo_L4-CV-8 emissions_L4-CV-8 ssm_L4-CV-8 toc_L4-CV-8 driverstateL4-CV-8" vType="L4-CV-24@L4-CV-8" speedFactor="1.10" vaporized="">
        <emissions CO_abs="8231.760325" CO2_abs="344663.252771" HC_abs="43.701981" PMx_abs="5.888058" NOx_abs="135.037617" fuel_abs="148.158937" electricity_abs="0"/>
    </tripinfo>
    <tripinfo id="L4-AV-10" depart="84.00" departLane="top-approaching_0" departPos="5.10" departSpeed="0.00" departDelay="0.00" arrival="177.70" arrivalLane="right-exit_1" arrivalPos="486.40" arrivalSpeed="19.80" duration="93.70" routeLength="992.21" waitingTime="8.80" waitingCount="2" stopTime="0.00" timeLoss="42.77" rerouteNo="0" devices="tripinfo_L4-AV-10 emissions_L4-AV-10 ssm_L4-AV-10 toc_L4-AV-10 driverstateL4-AV-10" vType="L4-AV-34@L4-AV-10" speedFactor="1.19" vaporized="">
        <emissions CO_abs="4023.091203" CO2_abs="224621.921190" HC_abs="23.114942" PMx_abs="3.914285" NOx_abs="89.172645" fuel_abs="96.556073" electricity_abs="0"/>
    </tripinfo>
    <tripinfo id="L2-CV-18" depart="80.50" departLane="top-approaching_0" departPos="5.10" departSpeed="0.00" departDelay="4.90" arrival="179.30" arrivalLane="right-exit_0" arrivalPos="486.40" arrivalSpeed="16.38" duration="98.80" routeLength="992.21" waitingTime="10.50" waitingCount="24" stopTime="0.00" timeLoss="37.29" rerouteNo="0" devices="tripinfo_L2-CV-18 emissions_L2-CV-18 ssm_L2-CV-18 toc_L2-CV-18 driverstateL2-CV-18" vType="L2-CV-82@L2-CV-18" speedFactor="0.98" vaporized="">
        <emissions CO_abs="4922.022025" CO2_abs="286793.074122" HC_abs="26.808373" PMx_abs="4.188457" NOx_abs="107.340785" fuel_abs="123.281873" electricity_abs="0"/>
    </tripinfo>
    <tripinfo id="L2-AV-18" depart="83.70" departLane="top-approaching_0" departPos="5.10" departSpeed="0.00" departDelay="8.10" arrival="184.00" arrivalLane="right-exit_0" arrivalPos="486.40" arrivalSpeed="15.67" duration="100.30" routeLength="992.21" waitingTime="0.10" waitingCount="1" stopTime="0.00" timeLoss="35.99" rerouteNo="0" devices="tripinfo_L2-AV-18 emissions_L2-AV-18 ssm_L2-AV-18 toc_L2-AV-18 driverstateL2-AV-18" vType="L2-AV-6@L2-AV-18" speedFactor="0.94" vaporized="">
        <emissions CO_abs="3431.527912" CO2_abs="248918.452696" HC_abs="19.212283" PMx_abs="3.262118" NOx_abs="91.036614" fuel_abs="107.000746" electricity_abs="0"/>
    </tripinfo>