<?xml version="1.0" encoding="UTF-8"?>

<!-- generated on 04/14/21 14:36:57 by Eclipse SUMO GUI Version 1.8.0
<configuration xmlns:xsi="http://www.w3.org/2001/XMLSchema-instance" xsi:noNamespaceSchemaLocation="http://sumo.dlr.de/xsd/sumoConfiguration.xsd">

    <input>
        <net-file value="Roadworks\BaselinePenetration3\../RoadworksIntersection.net.xml"/>
        <route-files value="Roadworks\BaselinePenetration3\../PresentationRoute.xml"/>
        <additional-files value="Roadworks\BaselinePenetration3\../Additional-Files/Roadworks-Detectors.add.xml,Roadworks\BaselinePenetration3\../Additional-Files/Roadworks-Rerouters.add.xml,Roadworks\BaselinePenetration3\../Additional-Files/Roadworks-Traffic-lights.add.xml,Roadworks\BaselinePenetration3\../Additional-Files/Roadworks-Traffic-Signs.add.xml,Roadworks\BaselinePenetration3\PreparingVehicleModels/Vehicle-Models/L4-CV.add.xml,Roadworks\BaselinePenetration3\PreparingVehicleModels/Vehicle-Models/L4-CV-Left.add.xml,Roadworks\BaselinePenetration3\PreparingVehicleModels/Vehicle-Models/L4-CV-Right.add.xml,Roadworks\BaselinePenetration3\PreparingVehicleModels/Vehicle-Models/L4-AV.add.xml,Roadworks\BaselinePenetration3\PreparingVehicleModels/Vehicle-Models/L4-AV-Left.add.xml,Roadworks\BaselinePenetration3\PreparingVehicleModels/Vehicle-Models/L4-AV-Right.add.xml,Roadworks\BaselinePenetration3\PreparingVehicleModels/Vehicle-Models/L2-CV.add.xml,Roadworks\BaselinePenetration3\PreparingVehicleModels/Vehicle-Models/L2-CV-Left.add.xml,Roadworks\BaselinePenetration3\PreparingVehicleModels/Vehicle-Models/L2-CV-Right.add.xml,Roadworks\BaselinePenetration3\PreparingVehicleModels/Vehicle-Models/L2-AV.add.xml,Roadworks\BaselinePenetration3\PreparingVehicleModels/Vehicle-Models/L2-AV-Left.add.xml,Roadworks\BaselinePenetration3\PreparingVehicleModels/Vehicle-Models/L2-AV-Right.add.xml,Roadworks\BaselinePenetration3\PreparingVehicleModels/Vehicle-Models/L0-HDV.add.xml,Roadworks\BaselinePenetration3\PreparingVehicleModels/Vehicle-Models/L0-HDV-Left.add.xml,Roadworks\BaselinePenetration3\PreparingVehicleModels/Vehicle-Models/L0-HDV-Straight.add.xml"/>
    </input>

    <output>
        <tripinfo-output value="Roadworks\BaselinePenetration3\Output-Files\TripInfo.xml"/>
    </output>

    <time>
        <begin value="0"/>
        <step-length value="0.1"/>
    </time>

    <processing>
        <ignore-route-errors value="true"/>
        <waiting-time-memory value="300"/>
        <default.action-step-length value="0.1"/>
    </processing>

    <report>
        <no-warnings value="true"/>
    </report>

    <emissions>
        <device.emissions.probability value="1"/>
    </emissions>

    <traci_server>
        <remote-port value="50194"/>
    </traci_server>

    <gui_only>
        <tracker-interval value="0.1"/>
    </gui_only>

</configuration>
-->

<tripinfos xmlns:xsi="http://www.w3.org/2001/XMLSchema-instance" xsi:noNamespaceSchemaLocation="http://sumo.dlr.de/xsd/tripinfo_file.xsd">
    <tripinfo id="L0-HDV-2.0" depart="15.00" departLane="bottom-approaching_2" departPos="5.10" departSpeed="0.00" departDelay="0.00" arrival="85.60" arrivalLane="left-exit_0" arrivalPos="431.00" arrivalSpeed="16.06" duration="70.60" routeLength="996.90" waitingTime="0.00" waitingCount="0" stopTime="0.00" timeLoss="6.15" rerouteNo="0" devices="tripinfo_L0-HDV-2.0 emissions_L0-HDV-2.0 ssm_L0-HDV-2.0" vType="L0-HDV-67" speedFactor="0.97" vaporized="">
        <emissions CO_abs="2359.844715" CO2_abs="199173.238078" HC_abs="15.277464" PMx_abs="3.333580" NOx_abs="78.371186" fuel_abs="85.615900" electricity_abs="0"/>
    </tripinfo>
    <tripinfo id="L4-CV-2.0" depart="18.00" departLane="bottom-approaching_0" departPos="5.10" departSpeed="0.00" departDelay="0.00" arrival="94.40" arrivalLane="left-exit_0" arrivalPos="431.00" arrivalSpeed="16.59" duration="76.40" routeLength="996.90" waitingTime="0.10" waitingCount="1" stopTime="0.00" timeLoss="13.73" rerouteNo="0" devices="tripinfo_L4-CV-2.0 emissions_L4-CV-2.0 ssm_L4-CV-2.0 toc_L4-CV-2.0 driverstateL4-CV-2.0" vType="L4-CV-56@L4-CV-2.0" speedFactor="1.00" vaporized="">
        <emissions CO_abs="2816.008272" CO2_abs="237781.635918" HC_abs="16.591537" PMx_abs="3.409233" NOx_abs="88.347124" fuel_abs="102.212699" electricity_abs="0"/>
    </tripinfo>
    <tripinfo id="L0-HDV-0.0" depart="0.00" departLane="left-long-approaching_2" departPos="5.10" departSpeed="0.00" departDelay="0.00" arrival="102.30" arrivalLane="top-exit_0" arrivalPos="486.40" arrivalSpeed="17.92" duration="102.30" routeLength="993.12" waitingTime="25.50" waitingCount="1" stopTime="0.00" timeLoss="44.65" rerouteNo="1" devices="tripinfo_L0-HDV-0.0 emissions_L0-HDV-0.0 ssm_L0-HDV-0.0" vType="L0-HDV-Left-49@L0-HDV-0.0" speedFactor="1.08" vaporized="">
        <emissions CO_abs="7773.708916" CO2_abs="314801.468987" HC_abs="42.712941" PMx_abs="5.974828" NOx_abs="129.596334" fuel_abs="135.321730" electricity_abs="0"/>
    </tripinfo>
    <tripinfo id="L4-CV-0.0" depart="0.00" departLane="left-long-approaching_1" departPos="5.10" departSpeed="0.00" departDelay="0.00" arrival="111.30" arrivalLane="top-exit_0" arrivalPos="486.40" arrivalSpeed="13.97" duration="111.30" routeLength="993.12" waitingTime="20.60" waitingCount="1" stopTime="0.00" timeLoss="37.35" rerouteNo="1" devices="tripinfo_L4-CV-0.0 emissions_L4-CV-0.0 ssm_L4-CV-0.0 toc_L4-CV-0.0 driverstateL4-CV-0.0" vType="L0-HDV-74" speedFactor="0.84" vaporized="">
        <emissions CO_abs="6565.190850" CO2_abs="278603.963235" HC_abs="35.543809" PMx_abs="4.417373" NOx_abs="109.020678" fuel_abs="119.762675" electricity_abs="0"/>
    </tripinfo>
</tripinfos>
