<?xml version="1.0" encoding="UTF-8"?>

<!-- generated on 04/25/21 15:50:11 by Eclipse SUMO GUI Version 1.8.0
<configuration xmlns:xsi="http://www.w3.org/2001/XMLSchema-instance" xsi:noNamespaceSchemaLocation="http://sumo.dlr.de/xsd/sumoConfiguration.xsd">

    <input>
        <net-file value="Roadworks\BaselinePenetration3\../RoadworksIntersection.net.xml"/>
        <route-files value="Roadworks\BaselinePenetration3\Route-Files/L4-CV-Route.rou.xml,Roadworks\BaselinePenetration3\Route-Files/L4-AV-Route.rou.xml,Roadworks\BaselinePenetration3\Route-Files/L2-CV-Route.rou.xml,Roadworks\BaselinePenetration3\Route-Files/L2-AV-Route.rou.xml,Roadworks\BaselinePenetration3\Route-Files/L0-HDV-Route.rou.xml"/>
        <additional-files value="Roadworks\BaselinePenetration3\../Additional-Files/Roadworks-Detectors.add.xml,Roadworks\BaselinePenetration3\../Additional-Files/Roadworks-Rerouters.add.xml,Roadworks\BaselinePenetration3\../Additional-Files/Roadworks-Traffic-lights.add.xml,Roadworks\BaselinePenetration3\../Additional-Files/Roadworks-Traffic-Signs.add.xml,Roadworks\BaselinePenetration3\PreparingVehicleModels/Vehicle-Models/L4-CV.add.xml,Roadworks\BaselinePenetration3\PreparingVehicleModels/Vehicle-Models/L4-CV-Left.add.xml,Roadworks\BaselinePenetration3\PreparingVehicleModels/Vehicle-Models/L4-CV-Right.add.xml,Roadworks\BaselinePenetration3\PreparingVehicleModels/Vehicle-Models/L4-AV.add.xml,Roadworks\BaselinePenetration3\PreparingVehicleModels/Vehicle-Models/L4-AV-Left.add.xml,Roadworks\BaselinePenetration3\PreparingVehicleModels/Vehicle-Models/L4-AV-Right.add.xml,Roadworks\BaselinePenetration3\PreparingVehicleModels/Vehicle-Models/L2-CV.add.xml,Roadworks\BaselinePenetration3\PreparingVehicleModels/Vehicle-Models/L2-CV-Left.add.xml,Roadworks\BaselinePenetration3\PreparingVehicleModels/Vehicle-Models/L2-CV-Right.add.xml,Roadworks\BaselinePenetration3\PreparingVehicleModels/Vehicle-Models/L2-AV.add.xml,Roadworks\BaselinePenetration3\PreparingVehicleModels/Vehicle-Models/L2-AV-Left.add.xml,Roadworks\BaselinePenetration3\PreparingVehicleModels/Vehicle-Models/L2-AV-Right.add.xml,Roadworks\BaselinePenetration3\PreparingVehicleModels/Vehicle-Models/L0-HDV.add.xml,Roadworks\BaselinePenetration3\PreparingVehicleModels/Vehicle-Models/L0-HDV-Left.add.xml,Roadworks\BaselinePenetration3\PreparingVehicleModels/Vehicle-Models/L0-HDV-Straight.add.xml"/>
    </input>

    <output>
        <tripinfo-output value="Roadworks\BaselinePenetration3\Output-Files\TripInfo.xml"/>
    </output>

    <time>
        <begin value="0"/>
        <step-length value="0.1"/>
    </time>

    <processing>
        <ignore-route-errors value="true"/>
        <waiting-time-memory value="300"/>
        <default.action-step-length value="0.1"/>
    </processing>

    <report>
        <no-warnings value="true"/>
    </report>

    <emissions>
        <device.emissions.probability value="1"/>
    </emissions>

    <traci_server>
        <remote-port value="49285"/>
    </traci_server>

    <gui_only>
        <quit-on-end value="true"/>
        <start value="true"/>
        <tracker-interval value="0.1"/>
    </gui_only>

</configuration>
-->

<tripinfos xmlns:xsi="http://www.w3.org/2001/XMLSchema-instance" xsi:noNamespaceSchemaLocation="http://sumo.dlr.de/xsd/tripinfo_file.xsd">
    <tripinfo id="L2-CV-2" depart="7.00" departLane="right-approaching_0" departPos="5.10" departSpeed="0.00" departDelay="0.00" arrival="83.80" arrivalLane="left-exit_1" arrivalPos="431.00" arrivalSpeed="20.01" duration="76.80" routeLength="999.16" waitingTime="3.90" waitingCount="1" stopTime="0.00" timeLoss="25.17" rerouteNo="0" devices="tripinfo_L2-CV-2 emissions_L2-CV-2 ssm_L2-CV-2 toc_L2-CV-2 driverstateL2-CV-2" vType="L2-CV-0@L2-CV-2" speedFactor="1.20" vaporized="">
        <emissions CO_abs="4305.169053" CO2_abs="294984.351398" HC_abs="25.311870" PMx_abs="4.851659" NOx_abs="112.374267" fuel_abs="126.801885" electricity_abs="0"/>
    </tripinfo>
    <tripinfo id="L2-CV-4" depart="14.00" departLane="left-long-approaching_0" departPos="5.10" departSpeed="0.00" departDelay="0.00" arrival="85.50" arrivalLane="right-exit_0" arrivalPos="486.40" arrivalSpeed="15.36" duration="71.50" routeLength="995.81" waitingTime="0.00" waitingCount="0" stopTime="0.00" timeLoss="4.56" rerouteNo="0" devices="tripinfo_L2-CV-4 emissions_L2-CV-4 ssm_L2-CV-4 toc_L2-CV-4 driverstateL2-CV-4" vType="L2-CV-44@L2-CV-4" speedFactor="0.92" vaporized="">
        <emissions CO_abs="1561.981086" CO2_abs="219651.743082" HC_abs="9.467044" PMx_abs="2.391910" NOx_abs="75.737893" fuel_abs="94.419572" electricity_abs="0"/>
    </tripinfo>
    <tripinfo id="L2-AV-3" depart="10.50" departLane="left-long-approaching_0" departPos="5.10" departSpeed="0.00" departDelay="0.00" arrival="90.60" arrivalLane="top-exit_0" arrivalPos="486.40" arrivalSpeed="15.61" duration="80.10" routeLength="993.12" waitingTime="2.60" waitingCount="1" stopTime="0.00" timeLoss="14.03" rerouteNo="1" devices="tripinfo_L2-AV-3 emissions_L2-AV-3 ssm_L2-AV-3 toc_L2-AV-3 driverstateL2-AV-3" vType="L0-HDV-56" speedFactor="0.94" vaporized="">
        <emissions CO_abs="3590.904888" CO2_abs="256501.270269" HC_abs="21.176890" PMx_abs="4.088981" NOx_abs="99.480110" fuel_abs="110.259340" electricity_abs="0"/>
    </tripinfo>
    <tripinfo id="L2-AV-6" depart="21.00" departLane="right-approaching_0" departPos="5.10" departSpeed="0.00" departDelay="0.00" arrival="98.70" arrivalLane="left-exit_0" arrivalPos="431.00" arrivalSpeed="15.32" duration="77.70" routeLength="999.16" waitingTime="0.00" waitingCount="0" stopTime="0.00" timeLoss="10.27" rerouteNo="0" devices="tripinfo_L2-AV-6 emissions_L2-AV-6 ssm_L2-AV-6 toc_L2-AV-6 driverstateL2-AV-6" vType="L2-AV-81@L2-AV-6" speedFactor="0.92" vaporized="">
        <emissions CO_abs="2999.096502" CO2_abs="255554.977153" HC_abs="18.134172" PMx_abs="3.881679" NOx_abs="97.710820" fuel_abs="109.852324" electricity_abs="0"/>
    </tripinfo>
    <tripinfo id="L0-HDV-3" depart="33.00" departLane="right-approaching_0" departPos="5.10" departSpeed="0.00" departDelay="0.00" arrival="103.50" arrivalLane="left-exit_1" arrivalPos="431.00" arrivalSpeed="17.78" duration="70.50" routeLength="999.16" waitingTime="0.00" waitingCount="0" stopTime="0.00" timeLoss="12.62" rerouteNo="0" devices="tripinfo_L0-HDV-3 emissions_L0-HDV-3 ssm_L0-HDV-3" vType="L0-HDV-34" speedFactor="1.07" vaporized="">
        <emissions CO_abs="2840.092709" CO2_abs="228481.763558" HC_abs="18.236295" PMx_abs="3.904156" NOx_abs="90.258933" fuel_abs="98.214384" electricity_abs="0"/>
    </tripinfo>
    <tripinfo id="L2-CV-7" depart="24.50" departLane="right-approaching_0" departPos="5.10" departSpeed="0.00" departDelay="0.00" arrival="104.20" arrivalLane="left-exit_0" arrivalPos="431.00" arrivalSpeed="15.11" duration="79.70" routeLength="999.16" waitingTime="0.00" waitingCount="0" stopTime="0.00" timeLoss="11.30" rerouteNo="0" devices="tripinfo_L2-CV-7 emissions_L2-CV-7 ssm_L2-CV-7 toc_L2-CV-7 driverstateL2-CV-7" vType="L2-CV-3@L2-CV-7" speedFactor="0.91" vaporized="">
        <emissions CO_abs="2833.909404" CO2_abs="247786.445821" HC_abs="17.171513" PMx_abs="3.545700" NOx_abs="93.115535" fuel_abs="106.513245" electricity_abs="0"/>
    </tripinfo>
    <tripinfo id="L2-AV-5" depart="17.50" departLane="left-long-approaching_0" departPos="5.10" departSpeed="0.00" departDelay="0.00" arrival="106.80" arrivalLane="top-exit_1" arrivalPos="486.40" arrivalSpeed="19.04" duration="89.30" routeLength="993.12" waitingTime="0.00" waitingCount="0" stopTime="0.00" timeLoss="34.93" rerouteNo="1" devices="tripinfo_L2-AV-5 emissions_L2-AV-5 ssm_L2-AV-5 toc_L2-AV-5 driverstateL2-AV-5" vType="L2-AV-Left-57@L2-AV-5" speedFactor="1.14" vaporized="">
        <emissions CO_abs="3515.127194" CO2_abs="237083.770545" HC_abs="20.571453" PMx_abs="3.817231" NOx_abs="91.695836" fuel_abs="101.912736" electricity_abs="0"/>
    </tripinfo>
    <tripinfo id="L2-AV-4" depart="16.80" departLane="left-long-approaching_0" departPos="5.10" departSpeed="0.00" departDelay="2.80" arrival="109.20" arrivalLane="top-exit_0" arrivalPos="486.40" arrivalSpeed="14.94" duration="92.40" routeLength="993.12" waitingTime="9.20" waitingCount="2" stopTime="0.00" timeLoss="23.15" rerouteNo="1" devices="tripinfo_L2-AV-4 emissions_L2-AV-4 ssm_L2-AV-4 toc_L2-AV-4 driverstateL2-AV-4" vType="L2-AV-Left-64@L2-AV-4" speedFactor="0.90" vaporized="">
        <emissions CO_abs="4474.329861" CO2_abs="277759.735400" HC_abs="24.728619" PMx_abs="3.981321" NOx_abs="104.567332" fuel_abs="119.398546" electricity_abs="0"/>
    </tripinfo>
    <tripinfo id="L0-HDV-5" depart="55.50" departLane="right-approaching_0" departPos="5.10" departSpeed="0.00" departDelay="0.50" arrival="113.80" arrivalLane="bottom-exit_1" arrivalPos="489.60" arrivalSpeed="18.57" duration="58.30" routeLength="992.90" waitingTime="0.00" waitingCount="0" stopTime="0.00" timeLoss="4.07" rerouteNo="0" devices="tripinfo_L0-HDV-5 emissions_L0-HDV-5 ssm_L0-HDV-5" vType="L0-HDV-17" speedFactor="1.12" vaporized="">
        <emissions CO_abs="2088.139192" CO2_abs="189752.850634" HC_abs="13.821448" PMx_abs="3.409044" NOx_abs="74.832844" fuel_abs="81.566118" electricity_abs="0"/>
    </tripinfo>
    <tripinfo id="L4-CV-3" depart="21.00" departLane="left-long-approaching_0" departPos="5.10" departSpeed="0.00" departDelay="0.00" arrival="115.50" arrivalLane="top-exit_0" arrivalPos="486.40" arrivalSpeed="14.21" duration="94.50" routeLength="993.12" waitingTime="0.00" waitingCount="0" stopTime="0.00" timeLoss="22.11" rerouteNo="1" devices="tripinfo_L4-CV-3 emissions_L4-CV-3 ssm_L4-CV-3 toc_L4-CV-3 driverstateL4-CV-3" vType="L0-HDV-93" speedFactor="0.86" vaporized="">
        <emissions CO_abs="3654.636227" CO2_abs="245351.531191" HC_abs="21.741051" PMx_abs="3.738716" NOx_abs="94.842707" fuel_abs="105.466996" electricity_abs="0"/>
    </tripinfo>
    <tripinfo id="L4-AV-3" depart="23.70" departLane="left-long-approaching_0" departPos="5.10" departSpeed="0.00" departDelay="2.70" arrival="117.00" arrivalLane="top-exit_0" arrivalPos="486.40" arrivalSpeed="14.62" duration="93.30" routeLength="993.12" waitingTime="0.00" waitingCount="0" stopTime="0.00" timeLoss="22.47" rerouteNo="1" devices="tripinfo_L4-AV-3 emissions_L4-AV-3 ssm_L4-AV-3 toc_L4-AV-3 driverstateL4-AV-3" vType="L4-AV-Left-84@L4-AV-3" speedFactor="0.88" vaporized="">
        <emissions CO_abs="3539.977525" CO2_abs="234404.501226" HC_abs="20.743175" PMx_abs="3.588025" NOx_abs="90.541534" fuel_abs="100.761284" electricity_abs="0"/>
    </tripinfo>
    <tripinfo id="L2-CV-6" depart="26.10" departLane="left-long-approaching_0" departPos="5.10" departSpeed="0.00" departDelay="5.10" arrival="118.40" arrivalLane="top-exit_1" arrivalPos="486.40" arrivalSpeed="16.68" duration="92.30" routeLength="993.12" waitingTime="0.40" waitingCount="1" stopTime="0.00" timeLoss="30.76" rerouteNo="1" devices="tripinfo_L2-CV-6 emissions_L2-CV-6 ssm_L2-CV-6 toc_L2-CV-6 driverstateL2-CV-6" vType="L2-CV-Left-21@L2-CV-6" speedFactor="1.01" vaporized="">
        <emissions CO_abs="4346.767396" CO2_abs="269660.308821" HC_abs="25.451448" PMx_abs="4.365453" NOx_abs="105.628981" fuel_abs="115.916306" electricity_abs="0"/>
    </tripinfo>
    <tripinfo id="L4-CV-4" depart="29.10" departLane="left-long-approaching_0" departPos="5.10" departSpeed="0.00" departDelay="1.10" arrival="119.60" arrivalLane="top-exit_1" arrivalPos="486.40" arrivalSpeed="17.11" duration="90.50" routeLength="993.12" waitingTime="0.00" waitingCount="0" stopTime="0.00" timeLoss="33.60" rerouteNo="1" devices="tripinfo_L4-CV-4 emissions_L4-CV-4 ssm_L4-CV-4 toc_L4-CV-4 driverstateL4-CV-4" vType="L0-HDV-54" speedFactor="1.09" vaporized="">
        <emissions CO_abs="4390.723634" CO2_abs="252277.436954" HC_abs="25.820713" PMx_abs="4.544453" NOx_abs="102.761073" fuel_abs="108.443659" electricity_abs="0"/>
    </tripinfo>
    <tripinfo id="L2-AV-12" depart="42.00" departLane="bottom-approaching_0" departPos="5.10" departSpeed="0.00" departDelay="0.00" arrival="144.40" arrivalLane="top-exit_0" arrivalPos="486.40" arrivalSpeed="18.33" duration="102.40" routeLength="995.17" waitingTime="28.60" waitingCount="1" stopTime="0.00" timeLoss="48.03" rerouteNo="0" devices="tripinfo_L2-AV-12 emissions_L2-AV-12 ssm_L2-AV-12 toc_L2-AV-12 driverstateL2-AV-12" vType="L2-AV-15@L2-AV-12" speedFactor="1.10" vaporized="">
        <emissions CO_abs="7769.011796" CO2_abs="334413.562013" HC_abs="41.194259" PMx_abs="5.749524" NOx_abs="130.532700" fuel_abs="143.752733" electricity_abs="0"/>
    </tripinfo>
    <tripinfo id="L2-AV-2" depart="7.00" departLane="bottom-approaching_0" departPos="5.10" departSpeed="0.00" departDelay="0.00" arrival="145.20" arrivalLane="right-exit_0" arrivalPos="486.40" arrivalSpeed="16.59" duration="138.20" routeLength="979.93" waitingTime="63.50" waitingCount="1" stopTime="0.00" timeLoss="78.13" rerouteNo="0" devices="tripinfo_L2-AV-2 emissions_L2-AV-2 ssm_L2-AV-2 toc_L2-AV-2 driverstateL2-AV-2" vType="L2-AV-56@L2-AV-2" speedFactor="1.00" vaporized="">
        <emissions CO_abs="13154.570114" CO2_abs="410482.239043" HC_abs="66.869525" PMx_abs="7.451766" NOx_abs="164.772906" fuel_abs="176.454263" electricity_abs="0"/>
    </tripinfo>
    <tripinfo id="L4-CV-2" depart="14.00" departLane="bottom-approaching_0" departPos="5.10" departSpeed="0.00" departDelay="0.00" arrival="147.30" arrivalLane="right-exit_0" arrivalPos="486.40" arrivalSpeed="16.26" duration="133.30" routeLength="979.93" waitingTime="54.70" waitingCount="1" stopTime="0.00" timeLoss="72.23" rerouteNo="0" devices="tripinfo_L4-CV-2 emissions_L4-CV-2 ssm_L4-CV-2 toc_L4-CV-2 driverstateL4-CV-2" vType="L4-CV-89@L4-CV-2" speedFactor="0.98" vaporized="">
        <emissions CO_abs="10143.152884" CO2_abs="365489.022574" HC_abs="52.272181" PMx_abs="6.224884" NOx_abs="143.561128" fuel_abs="157.112324" electricity_abs="0"/>
    </tripinfo>
    <tripinfo id="L2-CV-20" depart="70.00" departLane="bottom-approaching_0" departPos="5.10" departSpeed="0.00" departDelay="0.00" arrival="147.70" arrivalLane="left-exit_1" arrivalPos="431.00" arrivalSpeed="19.47" duration="77.70" routeLength="996.90" waitingTime="4.30" waitingCount="1" stopTime="0.00" timeLoss="24.65" rerouteNo="0" devices="tripinfo_L2-CV-20 emissions_L2-CV-20 ssm_L2-CV-20 toc_L2-CV-20 driverstateL2-CV-20" vType="L0-HDV-32" speedFactor="1.18" vaporized="">
        <emissions CO_abs="4550.501523" CO2_abs="285876.117144" HC_abs="26.720884" PMx_abs="5.049261" NOx_abs="112.878031" fuel_abs="122.886318" electricity_abs="0"/>
    </tripinfo>
    <tripinfo id="L2-CV-3" depart="10.50" departLane="top-approaching_0" departPos="5.10" departSpeed="0.00" departDelay="0.00" arrival="150.20" arrivalLane="left-exit_0" arrivalPos="431.00" arrivalSpeed="14.83" duration="139.70" routeLength="986.28" waitingTime="59.50" waitingCount="1" stopTime="0.00" timeLoss="70.43" rerouteNo="0" devices="tripinfo_L2-CV-3 emissions_L2-CV-3 ssm_L2-CV-3 toc_L2-CV-3 driverstateL2-CV-3" vType="L0-HDV-26" speedFactor="0.89" vaporized="">
        <emissions CO_abs="12290.893401" CO2_abs="367881.352926" HC_abs="63.219860" PMx_abs="6.718956" NOx_abs="149.536447" fuel_abs="158.141796" electricity_abs="0"/>
    </tripinfo>
    <tripinfo id="L4-CV-12" depart="84.30" departLane="bottom-approaching_0" departPos="5.10" departSpeed="0.00" departDelay="0.30" arrival="151.30" arrivalLane="top-exit_0" arrivalPos="486.40" arrivalSpeed="16.25" duration="67.00" routeLength="995.17" waitingTime="0.00" waitingCount="0" stopTime="0.00" timeLoss="5.70" rerouteNo="0" devices="tripinfo_L4-CV-12 emissions_L4-CV-12 ssm_L4-CV-12 toc_L4-CV-12 driverstateL4-CV-12" vType="L4-CV-30@L4-CV-12" speedFactor="0.98" vaporized="">
        <emissions CO_abs="1160.790643" CO2_abs="203788.655961" HC_abs="7.052174" PMx_abs="2.072289" NOx_abs="67.829252" fuel_abs="87.600713" electricity_abs="0"/>
    </tripinfo>
    <tripinfo id="L2-CV-24" depart="87.50" departLane="bottom-approaching_0" departPos="5.10" departSpeed="0.00" departDelay="3.50" arrival="152.10" arrivalLane="top-exit_1" arrivalPos="486.40" arrivalSpeed="17.19" duration="64.60" routeLength="995.17" waitingTime="0.00" waitingCount="0" stopTime="0.00" timeLoss="6.59" rerouteNo="0" devices="tripinfo_L2-CV-24 emissions_L2-CV-24 ssm_L2-CV-24 toc_L2-CV-24 driverstateL2-CV-24" vType="L2-CV-70@L2-CV-24" speedFactor="1.03" vaporized="">
        <emissions CO_abs="1291.218925" CO2_abs="148090.442183" HC_abs="7.936950" PMx_abs="1.946092" NOx_abs="52.748762" fuel_abs="63.658026" electricity_abs="0"/>
    </tripinfo>
    <tripinfo id="L4-AV-12" depart="87.40" departLane="bottom-approaching_0" departPos="5.10" departSpeed="0.00" departDelay="3.40" arrival="153.00" arrivalLane="top-exit_0" arrivalPos="486.40" arrivalSpeed="18.66" duration="65.60" routeLength="995.17" waitingTime="0.00" waitingCount="0" stopTime="0.00" timeLoss="12.16" rerouteNo="0" devices="tripinfo_L4-AV-12 emissions_L4-AV-12 ssm_L4-AV-12 toc_L4-AV-12 driverstateL4-AV-12" vType="L4-AV-85@L4-AV-12" speedFactor="1.12" vaporized="">
        <emissions CO_abs="1966.625139" CO2_abs="139221.718279" HC_abs="11.966422" PMx_abs="2.377704" NOx_abs="54.741071" fuel_abs="59.845557" electricity_abs="0"/>
    </tripinfo>
    <tripinfo id="L2-CV-21" depart="76.80" departLane="top-approaching_0" departPos="5.10" departSpeed="0.00" departDelay="3.30" arrival="153.80" arrivalLane="bottom-exit_0" arrivalPos="489.60" arrivalSpeed="16.74" duration="77.00" routeLength="995.17" waitingTime="0.00" waitingCount="0" stopTime="0.00" timeLoss="17.50" rerouteNo="0" devices="tripinfo_L2-CV-21 emissions_L2-CV-21 ssm_L2-CV-21 toc_L2-CV-21 driverstateL2-CV-21" vType="L2-CV-97@L2-CV-21" speedFactor="1.00" vaporized="">
        <emissions CO_abs="2582.067995" CO2_abs="248522.128332" HC_abs="15.209567" PMx_abs="3.290943" NOx_abs="89.757090" fuel_abs="106.829707" electricity_abs="0"/>
    </tripinfo>
    <tripinfo id="L2-AV-8" depart="28.00" departLane="bottom-approaching_0" departPos="5.10" departSpeed="0.00" departDelay="0.00" arrival="154.10" arrivalLane="right-exit_1" arrivalPos="486.40" arrivalSpeed="18.17" duration="126.10" routeLength="979.93" waitingTime="0.10" waitingCount="1" stopTime="0.00" timeLoss="71.23" rerouteNo="0" devices="tripinfo_L2-AV-8 emissions_L2-AV-8 ssm_L2-AV-8 toc_L2-AV-8 driverstateL2-AV-8" vType="L2-AV-96@L2-AV-8" speedFactor="1.09" vaporized="">
        <emissions CO_abs="3853.369312" CO2_abs="237834.219282" HC_abs="22.288153" PMx_abs="3.649473" NOx_abs="91.276502" fuel_abs="102.235872" electricity_abs="0"/>
    </tripinfo>
    <tripinfo id="L4-AV-2" depart="17.00" departLane="bottom-approaching_0" departPos="5.10" departSpeed="0.00" departDelay="3.00" arrival="154.60" arrivalLane="right-exit_0" arrivalPos="486.40" arrivalSpeed="13.99" duration="137.60" routeLength="979.93" waitingTime="0.00" waitingCount="0" stopTime="0.00" timeLoss="66.40" rerouteNo="0" devices="tripinfo_L4-AV-2 emissions_L4-AV-2 ssm_L4-AV-2 toc_L4-AV-2 driverstateL4-AV-2" vType="L4-AV-74@L4-AV-2" speedFactor="0.84" vaporized="">
        <emissions CO_abs="2711.837741" CO2_abs="227834.613080" HC_abs="15.987094" PMx_abs="2.685349" NOx_abs="81.773518" fuel_abs="97.937719" electricity_abs="0"/>
    </tripinfo>
    <tripinfo id="L2-AV-9" depart="31.50" departLane="top-approaching_0" departPos="5.10" departSpeed="0.00" departDelay="0.00" arrival="154.60" arrivalLane="left-exit_0" arrivalPos="431.00" arrivalSpeed="17.19" duration="123.10" routeLength="986.28" waitingTime="1.10" waitingCount="1" stopTime="0.00" timeLoss="63.10" rerouteNo="0" devices="tripinfo_L2-AV-9 emissions_L2-AV-9 ssm_L2-AV-9 toc_L2-AV-9 driverstateL2-AV-9" vType="L2-AV-1@L2-AV-9" speedFactor="1.03" vaporized="">
        <emissions CO_abs="3900.996171" CO2_abs="249290.880403" HC_abs="22.351030" PMx_abs="3.792395" NOx_abs="94.805376" fuel_abs="107.160580" electricity_abs="0"/>
    </tripinfo>
    <tripinfo id="L4-CV-8" depart="56.00" departLane="bottom-approaching_0" departPos="5.10" departSpeed="0.00" departDelay="0.00" arrival="156.70" arrivalLane="right-exit_0" arrivalPos="486.40" arrivalSpeed="16.52" duration="100.70" routeLength="979.93" waitingTime="0.00" waitingCount="0" stopTime="0.00" timeLoss="40.45" rerouteNo="0" devices="tripinfo_L4-CV-8 emissions_L4-CV-8 ssm_L4-CV-8 toc_L4-CV-8 driverstateL4-CV-8" vType="L4-CV-12@L4-CV-8" speedFactor="0.99" vaporized="">
        <emissions CO_abs="3650.211824" CO2_abs="249090.449491" HC_abs="21.102862" PMx_abs="3.555567" NOx_abs="93.231594" fuel_abs="107.074554" electricity_abs="0"/>
    </tripinfo>
    <tripinfo id="L2-AV-11" depart="42.00" departLane="top-approaching_0" departPos="5.10" departSpeed="0.00" departDelay="3.50" arrival="157.40" arrivalLane="left-exit_1" arrivalPos="431.00" arrivalSpeed="17.75" duration="115.40" routeLength="986.28" waitingTime="0.00" waitingCount="0" stopTime="0.00" timeLoss="57.36" rerouteNo="0" devices="tripinfo_L2-AV-11 emissions_L2-AV-11 ssm_L2-AV-11 toc_L2-AV-11 driverstateL2-AV-11" vType="L2-AV-3@L2-AV-11" speedFactor="1.06" vaporized="">
        <emissions CO_abs="3840.153586" CO2_abs="237448.365181" HC_abs="21.712947" PMx_abs="3.872683" NOx_abs="91.808926" fuel_abs="102.069629" electricity_abs="0"/>
    </tripinfo>
    <tripinfo id="L2-AV-17" depart="63.50" departLane="bottom-approaching_0" departPos="5.10" departSpeed="0.00" departDelay="4.00" arrival="157.90" arrivalLane="right-exit_1" arrivalPos="486.40" arrivalSpeed="17.99" duration="94.40" routeLength="979.93" waitingTime="0.00" waitingCount="0" stopTime="0.00" timeLoss="39.01" rerouteNo="0" devices="tripinfo_L2-AV-17 emissions_L2-AV-17 ssm_L2-AV-17 toc_L2-AV-17 driverstateL2-AV-17" vType="L2-AV-37@L2-AV-17" speedFactor="1.08" vaporized="">
        <emissions CO_abs="3783.846912" CO2_abs="234482.883400" HC_abs="21.455548" PMx_abs="3.693035" NOx_abs="89.854662" fuel_abs="100.795090" electricity_abs="0"/>
    </tripinfo>
    <tripinfo id="L4-AV-8" depart="59.90" departLane="bottom-approaching_0" departPos="5.10" departSpeed="0.00" departDelay="3.90" arrival="158.20" arrivalLane="right-exit_0" arrivalPos="486.40" arrivalSpeed="16.60" duration="98.30" routeLength="979.93" waitingTime="0.00" waitingCount="0" stopTime="0.00" timeLoss="38.34" rerouteNo="0" devices="tripinfo_L4-AV-8 emissions_L4-AV-8 ssm_L4-AV-8 toc_L4-AV-8 driverstateL4-AV-8" vType="L4-AV-88@L4-AV-8" speedFactor="1.00" vaporized="">
        <emissions CO_abs="3613.189017" CO2_abs="244756.537187" HC_abs="20.502623" PMx_abs="3.524904" NOx_abs="91.635886" fuel_abs="105.211490" electricity_abs="0"/>
    </tripinfo>
    <tripinfo id="L2-AV-13" depart="45.50" departLane="top-approaching_0" departPos="5.10" departSpeed="0.00" departDelay="0.00" arrival="160.10" arrivalLane="left-exit_0" arrivalPos="431.00" arrivalSpeed="17.11" duration="114.60" routeLength="986.28" waitingTime="0.00" waitingCount="0" stopTime="0.00" timeLoss="54.38" rerouteNo="0" devices="tripinfo_L2-AV-13 emissions_L2-AV-13 ssm_L2-AV-13 toc_L2-AV-13 driverstateL2-AV-13" vType="L2-AV-15@L2-AV-13" speedFactor="1.03" vaporized="">
        <emissions CO_abs="3783.828494" CO2_abs="236750.696659" HC_abs="21.087149" PMx_abs="3.602807" NOx_abs="90.006833" fuel_abs="101.770008" electricity_abs="0"/>
    </tripinfo>
    <tripinfo id="L2-CV-23" depart="80.50" departLane="bottom-approaching_0" departPos="5.10" departSpeed="0.00" departDelay="0.00" arrival="164.50" arrivalLane="right-exit_0" arrivalPos="486.40" arrivalSpeed="15.69" duration="84.00" routeLength="979.93" waitingTime="0.00" waitingCount="0" stopTime="0.00" timeLoss="20.53" rerouteNo="0" devices="tripinfo_L2-CV-23 emissions_L2-CV-23 ssm_L2-CV-23 toc_L2-CV-23 driverstateL2-CV-23" vType="L2-CV-85@L2-CV-23" speedFactor="0.94" vaporized="">
        <emissions CO_abs="3058.096948" CO2_abs="254159.666121" HC_abs="17.969171" PMx_abs="3.192065" NOx_abs="92.042125" fuel_abs="109.253655" electricity_abs="0"/>
    </tripinfo>
    <tripinfo id="L2-AV-29" depart="101.60" departLane="bottom-approaching_0" departPos="5.10" departSpeed="0.00" departDelay="0.10" arrival="165.60" arrivalLane="top-exit_0" arrivalPos="486.40" arrivalSpeed="17.03" duration="64.00" routeLength="995.17" waitingTime="0.00" waitingCount="0" stopTime="0.00" timeLoss="5.48" rerouteNo="0" devices="tripinfo_L2-AV-29 emissions_L2-AV-29 ssm_L2-AV-29 toc_L2-AV-29 driverstateL2-AV-29" vType="L2-AV-40@L2-AV-29" speedFactor="1.02" vaporized="">
        <emissions CO_abs="1109.930862" CO2_abs="204194.236697" HC_abs="6.788258" PMx_abs="2.188465" NOx_abs="68.173026" fuel_abs="87.774874" electricity_abs="0"/>
    </tripinfo>
    <tripinfo id="L2-AV-22" depart="77.00" departLane="bottom-approaching_0" departPos="5.10" departSpeed="0.00" departDelay="0.00" arrival="168.30" arrivalLane="left-exit_1" arrivalPos="431.00" arrivalSpeed="18.26" duration="91.30" routeLength="996.90" waitingTime="6.20" waitingCount="2" stopTime="0.00" timeLoss="34.30" rerouteNo="0" devices="tripinfo_L2-AV-22 emissions_L2-AV-22 ssm_L2-AV-22 toc_L2-AV-22 driverstateL2-AV-22" vType="L0-HDV-10" speedFactor="1.10" vaporized="">
        <emissions CO_abs="5418.871819" CO2_abs="289479.811360" HC_abs="30.462893" PMx_abs="4.977951" NOx_abs="114.374546" fuel_abs="124.436156" electricity_abs="0"/>
    </tripinfo>
    <tripinfo id="L4-AV-9" depart="66.10" departLane="top-approaching_0" departPos="5.10" departSpeed="0.00" departDelay="3.10" arrival="169.80" arrivalLane="left-exit_1" arrivalPos="431.00" arrivalSpeed="19.05" duration="103.70" routeLength="986.28" waitingTime="2.70" waitingCount="1" stopTime="0.00" timeLoss="49.54" rerouteNo="0" devices="tripinfo_L4-AV-9 emissions_L4-AV-9 ssm_L4-AV-9 toc_L4-AV-9 driverstateL4-AV-9" vType="L4-AV-34@L4-AV-9" speedFactor="1.14" vaporized="">
        <emissions CO_abs="4632.288172" CO2_abs="257521.568007" HC_abs="26.594515" PMx_abs="4.474833" NOx_abs="102.418789" fuel_abs="110.698340" electricity_abs="0"/>
    </tripinfo>
    <tripinfo id="L2-CV-5" depart="17.50" departLane="top-approaching_0" departPos="5.10" departSpeed="0.00" departDelay="0.00" arrival="171.60" arrivalLane="right-exit_0" arrivalPos="486.40" arrivalSpeed="17.62" duration="154.10" routeLength="992.21" waitingTime="77.30" waitingCount="4" stopTime="0.00" timeLoss="96.83" rerouteNo="0" devices="tripinfo_L2-CV-5 emissions_L2-CV-5 ssm_L2-CV-5 toc_L2-CV-5 driverstateL2-CV-5" vType="L2-CV-30@L2-CV-5" speedFactor="1.06" vaporized="">
        <emissions CO_abs="15993.520111" CO2_abs="466562.762934" HC_abs="81.542873" PMx_abs="8.938667" NOx_abs="190.470878" fuel_abs="200.561941" electricity_abs="0"/>
    </tripinfo>
    <tripinfo id="L0-HDV-2" depart="22.00" departLane="top-approaching_0" departPos="5.10" departSpeed="0.00" departDelay="0.00" arrival="173.20" arrivalLane="right-exit_0" arrivalPos="486.40" arrivalSpeed="17.33" duration="151.20" routeLength="992.21" waitingTime="71.40" waitingCount="3" stopTime="0.00" timeLoss="93.05" rerouteNo="0" devices="tripinfo_L0-HDV-2 emissions_L0-HDV-2 ssm_L0-HDV-2" vType="L0-HDV-32" speedFactor="1.04" vaporized="">
        <emissions CO_abs="15607.469591" CO2_abs="440157.071072" HC_abs="81.357941" PMx_abs="9.263706" NOx_abs="187.899624" fuel_abs="189.210142" electricity_abs="0"/>
    </tripinfo>
    <tripinfo id="L2-CV-26" depart="91.00" departLane="bottom-approaching_0" departPos="5.10" departSpeed="0.00" departDelay="0.00" arrival="173.30" arrivalLane="left-exit_0" arrivalPos="431.00" arrivalSpeed="17.21" duration="82.30" routeLength="996.90" waitingTime="0.50" waitingCount="1" stopTime="0.00" timeLoss="21.82" rerouteNo="0" devices="tripinfo_L2-CV-26 emissions_L2-CV-26 ssm_L2-CV-26 toc_L2-CV-26 driverstateL2-CV-26" vType="L2-CV-38@L2-CV-26" speedFactor="1.03" vaporized="">
        <emissions CO_abs="3847.940652" CO2_abs="270736.340112" HC_abs="22.798835" PMx_abs="4.476019" NOx_abs="105.488603" fuel_abs="116.378299" electricity_abs="0"/>
    </tripinfo>
    <tripinfo id="L2-AV-10" depart="35.00" departLane="top-approaching_0" departPos="5.10" departSpeed="0.00" departDelay="0.00" arrival="174.10" arrivalLane="right-exit_1" arrivalPos="486.40" arrivalSpeed="18.06" duration="139.10" routeLength="992.21" waitingTime="1.60" waitingCount="1" stopTime="0.00" timeLoss="83.22" rerouteNo="0" devices="tripinfo_L2-AV-10 emissions_L2-AV-10 ssm_L2-AV-10 toc_L2-AV-10 driverstateL2-AV-10" vType="L2-AV-98@L2-AV-10" speedFactor="1.08" vaporized="">
        <emissions CO_abs="3723.654256" CO2_abs="208284.051761" HC_abs="21.058403" PMx_abs="3.627991" NOx_abs="82.636998" fuel_abs="89.533005" electricity_abs="0"/>
    </tripinfo>
    <tripinfo id="L2-CV-11" depart="38.50" departLane="top-approaching_0" departPos="5.10" departSpeed="0.00" departDelay="0.00" arrival="175.80" arrivalLane="right-exit_0" arrivalPos="486.40" arrivalSpeed="17.75" duration="137.30" routeLength="992.21" waitingTime="1.00" waitingCount="1" stopTime="0.00" timeLoss="80.47" rerouteNo="0" devices="tripinfo_L2-CV-11 emissions_L2-CV-11 ssm_L2-CV-11 toc_L2-CV-11 driverstateL2-CV-11" vType="L2-CV-47@L2-CV-11" speedFactor="1.07" vaporized="">
        <emissions CO_abs="4024.408868" CO2_abs="254528.344367" HC_abs="22.849399" PMx_abs="3.992085" NOx_abs="96.783964" fuel_abs="109.411863" electricity_abs="0"/>
    </tripinfo>
    <tripinfo id="L2-CV-19" depart="68.20" departLane="top-approaching_0" departPos="5.10" departSpeed="0.00" departDelay="1.70" arrival="180.40" arrivalLane="right-exit_1" arrivalPos="486.40" arrivalSpeed="18.28" duration="112.20" routeLength="992.21" waitingTime="0.00" waitingCount="0" stopTime="0.00" timeLoss="56.99" rerouteNo="0" devices="tripinfo_L2-CV-19 emissions_L2-CV-19 ssm_L2-CV-19 toc_L2-CV-19 driverstateL2-CV-19" vType="L2-CV-24@L2-CV-19" speedFactor="1.10" vaporized="">
        <emissions CO_abs="3703.078296" CO2_abs="249124.506104" HC_abs="21.602911" PMx_abs="3.958382" NOx_abs="95.034904" fuel_abs="107.088741" electricity_abs="0"/>
    </tripinfo>