<?xml version="1.0" encoding="UTF-8"?>

<!-- generated on 04/12/21 20:10:19 by Eclipse SUMO GUI Version 1.8.0
<configuration xmlns:xsi="http://www.w3.org/2001/XMLSchema-instance" xsi:noNamespaceSchemaLocation="http://sumo.dlr.de/xsd/sumoConfiguration.xsd">

    <input>
        <net-file value="Roadworks\BaselinePenetration3\../RoadworksIntersection.net.xml"/>
        <route-files value="Roadworks\BaselinePenetration3\../PresentationRoute.xml"/>
        <additional-files value="Roadworks\BaselinePenetration3\../Additional-Files/Roadworks-Detectors.add.xml,Roadworks\BaselinePenetration3\../Additional-Files/Roadworks-Rerouters.add.xml,Roadworks\BaselinePenetration3\../Additional-Files/Roadworks-Traffic-lights.add.xml,Roadworks\BaselinePenetration3\../Additional-Files/Roadworks-Traffic-Signs.add.xml,Roadworks\BaselinePenetration3\PreparingVehicleModels/Vehicle-Models/L4-CV.add.xml,Roadworks\BaselinePenetration3\PreparingVehicleModels/Vehicle-Models/L4-CV-Left.add.xml,Roadworks\BaselinePenetration3\PreparingVehicleModels/Vehicle-Models/L4-CV-Right.add.xml,Roadworks\BaselinePenetration3\PreparingVehicleModels/Vehicle-Models/L4-AV.add.xml,Roadworks\BaselinePenetration3\PreparingVehicleModels/Vehicle-Models/L4-AV-Left.add.xml,Roadworks\BaselinePenetration3\PreparingVehicleModels/Vehicle-Models/L4-AV-Right.add.xml,Roadworks\BaselinePenetration3\PreparingVehicleModels/Vehicle-Models/L2-CV.add.xml,Roadworks\BaselinePenetration3\PreparingVehicleModels/Vehicle-Models/L2-CV-Left.add.xml,Roadworks\BaselinePenetration3\PreparingVehicleModels/Vehicle-Models/L2-CV-Right.add.xml,Roadworks\BaselinePenetration3\PreparingVehicleModels/Vehicle-Models/L2-AV.add.xml,Roadworks\BaselinePenetration3\PreparingVehicleModels/Vehicle-Models/L2-AV-Left.add.xml,Roadworks\BaselinePenetration3\PreparingVehicleModels/Vehicle-Models/L2-AV-Right.add.xml,Roadworks\BaselinePenetration3\PreparingVehicleModels/Vehicle-Models/L0-HDV.add.xml,Roadworks\BaselinePenetration3\PreparingVehicleModels/Vehicle-Models/L0-HDV-Left.add.xml,Roadworks\BaselinePenetration3\PreparingVehicleModels/Vehicle-Models/L0-HDV-Straight.add.xml"/>
    </input>

    <output>
        <tripinfo-output value="Roadworks\BaselinePenetration3\Output-Files\TripInfo.xml"/>
    </output>

    <time>
        <begin value="0"/>
        <step-length value="0.1"/>
    </time>

    <processing>
        <ignore-route-errors value="true"/>
        <waiting-time-memory value="300"/>
        <default.action-step-length value="0.1"/>
    </processing>

    <report>
        <no-warnings value="true"/>
    </report>

    <emissions>
        <device.emissions.probability value="1"/>
    </emissions>

    <traci_server>
        <remote-port value="52127"/>
    </traci_server>

    <gui_only>
        <tracker-interval value="0.1"/>
    </gui_only>

</configuration>
-->

<tripinfos xmlns:xsi="http://www.w3.org/2001/XMLSchema-instance" xsi:noNamespaceSchemaLocation="http://sumo.dlr.de/xsd/tripinfo_file.xsd">
    <tripinfo id="L0-HDV-2.0" depart="15.00" departLane="bottom-approaching_2" departPos="5.10" departSpeed="0.00" departDelay="0.00" arrival="85.60" arrivalLane="left-exit_0" arrivalPos="431.00" arrivalSpeed="16.06" duration="70.60" routeLength="996.90" waitingTime="0.00" waitingCount="0" stopTime="0.00" timeLoss="6.15" rerouteNo="0" devices="tripinfo_L0-HDV-2.0 emissions_L0-HDV-2.0 ssm_L0-HDV-2.0" vType="L0-HDV-67" speedFactor="0.97" vaporized="">
        <emissions CO_abs="2359.844715" CO2_abs="199173.238078" HC_abs="15.277464" PMx_abs="3.333580" NOx_abs="78.371186" fuel_abs="85.615900" electricity_abs="0"/>
    </tripinfo>
</tripinfos>
