<?xml version="1.0" encoding="UTF-8"?>

<!-- generated on 04/02/21 13:53:22 by Eclipse SUMO GUI Version 1.8.0
<configuration xmlns:xsi="http://www.w3.org/2001/XMLSchema-instance" xsi:noNamespaceSchemaLocation="http://sumo.dlr.de/xsd/sumoConfiguration.xsd">

    <input>
        <net-file value="Roadworks\BaselinePenetration3\../RoadworksIntersection.net.xml"/>
        <route-files value="Roadworks\BaselinePenetration3\Route-Files/L4-CV-Route.rou.xml,Roadworks\BaselinePenetration3\Route-Files/L4-AV-Route.rou.xml,Roadworks\BaselinePenetration3\Route-Files/L2-CV-Route.rou.xml,Roadworks\BaselinePenetration3\Route-Files/L2-AV-Route.rou.xml,Roadworks\BaselinePenetration3\Route-Files/L0-HDV-Route.rou.xml"/>
        <additional-files value="Roadworks\BaselinePenetration3\../Additional-Files/Roadworks-Detectors.add.xml,Roadworks\BaselinePenetration3\../Additional-Files/Roadworks-Rerouters.add.xml,Roadworks\BaselinePenetration3\../Additional-Files/Roadworks-Traffic-lights.add.xml,Roadworks\BaselinePenetration3\../Additional-Files/Roadworks-Traffic-Signs.add.xml,Roadworks\BaselinePenetration3\PreparingVehicleModels/Vehicle-Models/L4-CV.add.xml,Roadworks\BaselinePenetration3\PreparingVehicleModels/Vehicle-Models/L4-CV-Left.add.xml,Roadworks\BaselinePenetration3\PreparingVehicleModels/Vehicle-Models/L4-CV-Right.add.xml,Roadworks\BaselinePenetration3\PreparingVehicleModels/Vehicle-Models/L4-AV.add.xml,Roadworks\BaselinePenetration3\PreparingVehicleModels/Vehicle-Models/L4-AV-Left.add.xml,Roadworks\BaselinePenetration3\PreparingVehicleModels/Vehicle-Models/L4-AV-Right.add.xml,Roadworks\BaselinePenetration3\PreparingVehicleModels/Vehicle-Models/L2-CV.add.xml,Roadworks\BaselinePenetration3\PreparingVehicleModels/Vehicle-Models/L2-CV-Left.add.xml,Roadworks\BaselinePenetration3\PreparingVehicleModels/Vehicle-Models/L2-CV-Right.add.xml,Roadworks\BaselinePenetration3\PreparingVehicleModels/Vehicle-Models/L2-AV.add.xml,Roadworks\BaselinePenetration3\PreparingVehicleModels/Vehicle-Models/L2-AV-Left.add.xml,Roadworks\BaselinePenetration3\PreparingVehicleModels/Vehicle-Models/L2-AV-Right.add.xml,Roadworks\BaselinePenetration3\PreparingVehicleModels/Vehicle-Models/L0-HDV.add.xml,Roadworks\BaselinePenetration3\PreparingVehicleModels/Vehicle-Models/L0-HDV-Left.add.xml,Roadworks\BaselinePenetration3\PreparingVehicleModels/Vehicle-Models/L0-HDV-Straight.add.xml"/>
    </input>

    <output>
        <tripinfo-output value="Roadworks\BaselinePenetration3\Output-Files\TripInfo.xml"/>
    </output>

    <time>
        <begin value="0"/>
        <step-length value="0.1"/>
    </time>

    <processing>
        <ignore-route-errors value="true"/>
        <waiting-time-memory value="300"/>
        <default.action-step-length value="0.1"/>
    </processing>

    <report>
        <no-warnings value="true"/>
    </report>

    <emissions>
        <device.emissions.probability value="1"/>
    </emissions>

    <traci_server>
        <remote-port value="53156"/>
    </traci_server>

    <gui_only>
        <quit-on-end value="true"/>
        <start value="true"/>
        <tracker-interval value="0.1"/>
    </gui_only>

</configuration>
-->

<tripinfos xmlns:xsi="http://www.w3.org/2001/XMLSchema-instance" xsi:noNamespaceSchemaLocation="http://sumo.dlr.de/xsd/tripinfo_file.xsd">
    <tripinfo id="L2-AV-1" depart="6.00" departLane="left-long-approaching_0" departPos="5.10" departSpeed="0.00" departDelay="0.00" arrival="84.50" arrivalLane="bottom-exit_0" arrivalPos="489.60" arrivalSpeed="16.59" duration="78.50" routeLength="983.54" waitingTime="2.90" waitingCount="1" stopTime="0.00" timeLoss="16.72" rerouteNo="0" devices="tripinfo_L2-AV-1 emissions_L2-AV-1 ssm_L2-AV-1 toc_L2-AV-1 driverstateL2-AV-1" vType="L2-AV-Right-56@L2-AV-1" speedFactor="1.00" vaporized="">
        <emissions CO_abs="3191.346779" CO2_abs="252515.692963" HC_abs="17.864624" PMx_abs="3.454488" NOx_abs="92.214982" fuel_abs="108.546632" electricity_abs="0"/>
    </tripinfo>
    <tripinfo id="L2-CV-3" depart="18.00" departLane="right-approaching_0" departPos="5.10" departSpeed="0.00" departDelay="0.00" arrival="96.10" arrivalLane="left-exit_0" arrivalPos="431.00" arrivalSpeed="14.99" duration="78.10" routeLength="999.16" waitingTime="0.00" waitingCount="0" stopTime="0.00" timeLoss="9.15" rerouteNo="0" devices="tripinfo_L2-CV-3 emissions_L2-CV-3 ssm_L2-CV-3 toc_L2-CV-3 driverstateL2-CV-3" vType="L2-CV-78@L2-CV-3" speedFactor="0.90" vaporized="">
        <emissions CO_abs="2092.651181" CO2_abs="233006.111657" HC_abs="12.589699" PMx_abs="2.602453" NOx_abs="81.743018" fuel_abs="100.160367" electricity_abs="0"/>
    </tripinfo>
    <tripinfo id="L2-CV-5" depart="30.00" departLane="right-approaching_0" departPos="5.10" departSpeed="0.00" departDelay="0.00" arrival="114.50" arrivalLane="bottom-exit_0" arrivalPos="489.60" arrivalSpeed="12.85" duration="84.50" routeLength="992.90" waitingTime="0.00" waitingCount="0" stopTime="0.00" timeLoss="5.92" rerouteNo="0" devices="tripinfo_L2-CV-5 emissions_L2-CV-5 ssm_L2-CV-5 toc_L2-CV-5 driverstateL2-CV-5" vType="L2-CV-71@L2-CV-5" speedFactor="0.77" vaporized="">
        <emissions CO_abs="1558.887797" CO2_abs="222458.457671" HC_abs="11.821493" PMx_abs="2.099420" NOx_abs="76.610881" fuel_abs="95.626794" electricity_abs="0"/>
    </tripinfo>
    <tripinfo id="L0-HDV-1" depart="18.00" departLane="top-approaching_0" departPos="5.10" departSpeed="0.00" departDelay="0.00" arrival="141.50" arrivalLane="left-exit_0" arrivalPos="431.00" arrivalSpeed="16.90" duration="123.50" routeLength="986.28" waitingTime="55.00" waitingCount="1" stopTime="0.00" timeLoss="62.92" rerouteNo="0" devices="tripinfo_L0-HDV-1 emissions_L0-HDV-1 ssm_L0-HDV-1" vType="L0-HDV-51" speedFactor="1.02" vaporized="">
        <emissions CO_abs="12274.115582" CO2_abs="382211.614069" HC_abs="64.828246" PMx_abs="8.056425" NOx_abs="163.045203" fuel_abs="164.300052" electricity_abs="0"/>
    </tripinfo>
    <tripinfo id="L0-HDV-0" depart="0.00" departLane="bottom-approaching_0" departPos="5.10" departSpeed="0.00" departDelay="0.00" arrival="143.50" arrivalLane="top-exit_0" arrivalPos="486.40" arrivalSpeed="17.28" duration="143.50" routeLength="995.17" waitingTime="70.20" waitingCount="1" stopTime="0.00" timeLoss="86.03" rerouteNo="0" devices="tripinfo_L0-HDV-0 emissions_L0-HDV-0 ssm_L0-HDV-0" vType="L0-HDV-32" speedFactor="1.04" vaporized="">
        <emissions CO_abs="15172.698215" CO2_abs="434159.877343" HC_abs="79.255940" PMx_abs="9.139136" NOx_abs="185.259602" fuel_abs="186.631950" electricity_abs="0"/>
    </tripinfo>
    <tripinfo id="L2-AV-4" depart="27.10" departLane="top-approaching_0" departPos="5.10" departSpeed="0.00" departDelay="3.10" arrival="145.20" arrivalLane="bottom-exit_0" arrivalPos="489.60" arrivalSpeed="15.71" duration="118.10" routeLength="995.17" waitingTime="41.70" waitingCount="1" stopTime="0.00" timeLoss="54.62" rerouteNo="0" devices="tripinfo_L2-AV-4 emissions_L2-AV-4 ssm_L2-AV-4 toc_L2-AV-4 driverstateL2-AV-4" vType="L2-AV-90@L2-AV-4" speedFactor="0.94" vaporized="">
        <emissions CO_abs="9304.283354" CO2_abs="350297.923924" HC_abs="47.829851" PMx_abs="5.737050" NOx_abs="136.122489" fuel_abs="150.582073" electricity_abs="0"/>
    </tripinfo>
    <tripinfo id="L2-AV-7" depart="42.00" departLane="bottom-approaching_0" departPos="5.10" departSpeed="0.00" departDelay="0.00" arrival="146.60" arrivalLane="top-exit_0" arrivalPos="486.40" arrivalSpeed="16.38" duration="104.60" routeLength="995.17" waitingTime="0.00" waitingCount="0" stopTime="0.00" timeLoss="43.77" rerouteNo="0" devices="tripinfo_L2-AV-7 emissions_L2-AV-7 ssm_L2-AV-7 toc_L2-AV-7 driverstateL2-AV-7" vType="L2-AV-82@L2-AV-7" speedFactor="0.98" vaporized="">
        <emissions CO_abs="2691.804644" CO2_abs="239066.109828" HC_abs="15.224542" PMx_abs="3.184860" NOx_abs="86.644464" fuel_abs="102.765010" electricity_abs="0"/>
    </tripinfo>
    <tripinfo id="L2-CV-2" depart="12.00" departLane="top-approaching_0" departPos="5.10" departSpeed="0.00" departDelay="0.00" arrival="150.50" arrivalLane="right-exit_0" arrivalPos="486.40" arrivalSpeed="20.01" duration="138.50" routeLength="992.21" waitingTime="60.70" waitingCount="3" stopTime="0.00" timeLoss="88.12" rerouteNo="0" devices="tripinfo_L2-CV-2 emissions_L2-CV-2 ssm_L2-CV-2 toc_L2-CV-2 driverstateL2-CV-2" vType="L2-CV-0@L2-CV-2" speedFactor="1.20" vaporized="">
        <emissions CO_abs="14255.527327" CO2_abs="453846.021764" HC_abs="74.389697" PMx_abs="8.842652" NOx_abs="185.505653" fuel_abs="195.094289" electricity_abs="0"/>
    </tripinfo>
    <tripinfo id="L2-AV-12" depart="72.00" departLane="top-approaching_0" departPos="5.10" departSpeed="0.00" departDelay="0.00" arrival="151.40" arrivalLane="bottom-exit_1" arrivalPos="489.60" arrivalSpeed="16.31" duration="79.40" routeLength="995.17" waitingTime="0.00" waitingCount="0" stopTime="0.00" timeLoss="18.32" rerouteNo="0" devices="tripinfo_L2-AV-12 emissions_L2-AV-12 ssm_L2-AV-12 toc_L2-AV-12 driverstateL2-AV-12" vType="L2-AV-50@L2-AV-12" speedFactor="0.98" vaporized="">
        <emissions CO_abs="2480.512945" CO2_abs="221413.780640" HC_abs="14.674860" PMx_abs="2.963580" NOx_abs="80.960492" fuel_abs="95.177002" electricity_abs="0"/>
    </tripinfo>
    <tripinfo id="L2-AV-9" depart="54.00" departLane="top-approaching_0" departPos="5.10" departSpeed="0.00" departDelay="0.00" arrival="151.60" arrivalLane="bottom-exit_0" arrivalPos="489.60" arrivalSpeed="14.35" duration="97.60" routeLength="995.17" waitingTime="0.00" waitingCount="0" stopTime="0.00" timeLoss="28.20" rerouteNo="0" devices="tripinfo_L2-AV-9 emissions_L2-AV-9 ssm_L2-AV-9 toc_L2-AV-9 driverstateL2-AV-9" vType="L2-AV-1@L2-AV-9" speedFactor="0.86" vaporized="">
        <emissions CO_abs="2570.837932" CO2_abs="234059.125683" HC_abs="15.201927" PMx_abs="2.691629" NOx_abs="83.301145" fuel_abs="100.613309" electricity_abs="0"/>
    </tripinfo>
    <tripinfo id="L0-HDV-5" depart="90.00" departLane="top-approaching_0" departPos="5.10" departSpeed="0.00" departDelay="0.00" arrival="154.70" arrivalLane="left-exit_0" arrivalPos="431.00" arrivalSpeed="17.21" duration="64.70" routeLength="986.28" waitingTime="0.00" waitingCount="0" stopTime="0.00" timeLoss="4.99" rerouteNo="0" devices="tripinfo_L0-HDV-5 emissions_L0-HDV-5 ssm_L0-HDV-5" vType="L0-HDV-93" speedFactor="1.03" vaporized="">
        <emissions CO_abs="2957.081031" CO2_abs="237904.277397" HC_abs="19.025644" PMx_abs="4.406399" NOx_abs="96.342999" fuel_abs="102.264171" electricity_abs="0"/>
    </tripinfo>
    <tripinfo id="L4-CV-2" depart="24.00" departLane="top-approaching_0" departPos="5.10" departSpeed="0.00" departDelay="0.00" arrival="156.00" arrivalLane="right-exit_0" arrivalPos="486.40" arrivalSpeed="16.26" duration="132.00" routeLength="992.21" waitingTime="43.30" waitingCount="31" stopTime="0.00" timeLoss="70.13" rerouteNo="0" devices="tripinfo_L4-CV-2 emissions_L4-CV-2 ssm_L4-CV-2 toc_L4-CV-2 driverstateL4-CV-2" vType="L4-CV-89@L4-CV-2" speedFactor="0.98" vaporized="">
        <emissions CO_abs="9162.822867" CO2_abs="353627.642326" HC_abs="47.256894" PMx_abs="5.868614" NOx_abs="137.878169" fuel_abs="152.013102" electricity_abs="0"/>
    </tripinfo>
    <tripinfo id="L2-CV-8" depart="48.00" departLane="top-approaching_0" departPos="5.10" departSpeed="0.00" departDelay="0.00" arrival="156.60" arrivalLane="right-exit_1" arrivalPos="486.40" arrivalSpeed="19.80" duration="108.60" routeLength="992.21" waitingTime="0.00" waitingCount="0" stopTime="0.00" timeLoss="57.66" rerouteNo="0" devices="tripinfo_L2-CV-8 emissions_L2-CV-8 ssm_L2-CV-8 toc_L2-CV-8 driverstateL2-CV-8" vType="L2-CV-34@L2-CV-8" speedFactor="1.19" vaporized="">
        <emissions CO_abs="4158.345465" CO2_abs="291575.599268" HC_abs="24.914364" PMx_abs="4.777025" NOx_abs="111.151777" fuel_abs="125.336589" electricity_abs="0"/>
    </tripinfo>
    <tripinfo id="L4-AV-2" depart="27.00" departLane="top-approaching_0" departPos="5.10" departSpeed="0.00" departDelay="3.00" arrival="161.70" arrivalLane="right-exit_0" arrivalPos="486.40" arrivalSpeed="13.99" duration="134.70" routeLength="992.21" waitingTime="0.00" waitingCount="0" stopTime="0.00" timeLoss="62.66" rerouteNo="0" devices="tripinfo_L4-AV-2 emissions_L4-AV-2 ssm_L4-AV-2 toc_L4-AV-2 driverstateL4-AV-2" vType="L4-AV-74@L4-AV-2" speedFactor="0.84" vaporized="">
        <emissions CO_abs="3217.201916" CO2_abs="237351.451016" HC_abs="18.530040" PMx_abs="2.890923" NOx_abs="85.952841" fuel_abs="102.028850" electricity_abs="0"/>
    </tripinfo>
    <tripinfo id="L2-AV-2" depart="12.00" departLane="bottom-approaching_0" departPos="5.10" departSpeed="0.00" departDelay="0.00" arrival="166.60" arrivalLane="left-exit_0" arrivalPos="431.00" arrivalSpeed="14.12" duration="154.60" routeLength="996.90" waitingTime="67.90" waitingCount="2" stopTime="0.00" timeLoss="80.95" rerouteNo="0" devices="tripinfo_L2-AV-2 emissions_L2-AV-2 ssm_L2-AV-2 toc_L2-AV-2 driverstateL2-AV-2" vType="L2-AV-57@L2-AV-2" speedFactor="0.85" vaporized="">
        <emissions CO_abs="13881.179645" CO2_abs="422535.853677" HC_abs="71.164485" PMx_abs="7.260295" NOx_abs="168.643395" fuel_abs="181.636678" electricity_abs="0"/>
    </tripinfo>
    <tripinfo id="L4-CV-8" depart="96.00" departLane="top-approaching_0" departPos="5.10" departSpeed="0.00" departDelay="0.00" arrival="168.60" arrivalLane="right-exit_0" arrivalPos="486.40" arrivalSpeed="15.86" duration="72.60" routeLength="992.21" waitingTime="0.00" waitingCount="0" stopTime="0.00" timeLoss="9.03" rerouteNo="0" devices="tripinfo_L4-CV-8 emissions_L4-CV-8 ssm_L4-CV-8 toc_L4-CV-8 driverstateL4-CV-8" vType="L4-CV-41@L4-CV-8" speedFactor="0.95" vaporized="">
        <emissions CO_abs="1914.760997" CO2_abs="231806.425951" HC_abs="11.909181" PMx_abs="2.778368" NOx_abs="81.824269" fuel_abs="99.644328" electricity_abs="0"/>
    </tripinfo>
    <tripinfo id="L4-AV-8" depart="99.30" departLane="top-approaching_0" departPos="5.10" departSpeed="0.00" departDelay="3.30" arrival="176.60" arrivalLane="right-exit_0" arrivalPos="486.40" arrivalSpeed="14.80" duration="77.30" routeLength="992.21" waitingTime="0.00" waitingCount="0" stopTime="0.00" timeLoss="9.21" rerouteNo="0" devices="tripinfo_L4-AV-8 emissions_L4-AV-8 ssm_L4-AV-8 toc_L4-AV-8 driverstateL4-AV-8" vType="L4-AV-58@L4-AV-8" speedFactor="0.89" vaporized="">
        <emissions CO_abs="1989.623468" CO2_abs="226098.169059" HC_abs="12.136714" PMx_abs="2.529941" NOx_abs="79.431611" fuel_abs="97.190877" electricity_abs="0"/>
    </tripinfo>
    <tripinfo id="L2-AV-18" depart="108.00" departLane="top-approaching_0" departPos="5.10" departSpeed="0.00" departDelay="0.00" arrival="180.40" arrivalLane="right-exit_0" arrivalPos="486.40" arrivalSpeed="16.29" duration="72.40" routeLength="992.21" waitingTime="0.00" waitingCount="0" stopTime="0.00" timeLoss="10.48" rerouteNo="0" devices="tripinfo_L2-AV-18 emissions_L2-AV-18 ssm_L2-AV-18 toc_L2-AV-18 driverstateL2-AV-18" vType="L2-AV-91@L2-AV-18" speedFactor="0.98" vaporized="">
        <emissions CO_abs="2062.725946" CO2_abs="224661.746489" HC_abs="12.523512" PMx_abs="2.813055" NOx_abs="80.156566" fuel_abs="96.573104" electricity_abs="0"/>
    </tripinfo>
</tripinfos>
