<?xml version="1.0" encoding="UTF-8"?>

<!-- generated on 03/27/21 18:54:26 by Eclipse SUMO GUI Version 1.8.0
<configuration xmlns:xsi="http://www.w3.org/2001/XMLSchema-instance" xsi:noNamespaceSchemaLocation="http://sumo.dlr.de/xsd/sumoConfiguration.xsd">

    <input>
        <net-file value="Collision\BaselinePenetration2\../CollisionIntersection.net.xml"/>
        <route-files value="Collision\BaselinePenetration2\../CrashedVehicleRoutes.rou.xml,Collision\BaselinePenetration2\Route-Files/L4-CV-Route.rou.xml,Collision\BaselinePenetration2\Route-Files/L4-AV-Route.rou.xml,Collision\BaselinePenetration2\Route-Files/L2-CV-Route.rou.xml,Collision\BaselinePenetration2\Route-Files/L2-AV-Route.rou.xml,Collision\BaselinePenetration2\Route-Files/L0-HDV-Route.rou.xml"/>
        <additional-files value="Collision\BaselinePenetration2\../Additional-Files/Collision-Detectors.add.xml,Collision\BaselinePenetration2\../Additional-Files/Collision-TMS-Rerouters.add.xml,Collision\BaselinePenetration2\PreparingVehicleModels/Vehicle-Models/L4-CV.add.xml,Collision\BaselinePenetration2\PreparingVehicleModels/Vehicle-Models/L4-CV-Left.add.xml,Collision\BaselinePenetration2\PreparingVehicleModels/Vehicle-Models/L4-CV-Right.add.xml,Collision\BaselinePenetration2\PreparingVehicleModels/Vehicle-Models/L4-AV.add.xml,Collision\BaselinePenetration2\PreparingVehicleModels/Vehicle-Models/L4-AV-Left.add.xml,Collision\BaselinePenetration2\PreparingVehicleModels/Vehicle-Models/L4-AV-Right.add.xml,Collision\BaselinePenetration2\PreparingVehicleModels/Vehicle-Models/L2-CV.add.xml,Collision\BaselinePenetration2\PreparingVehicleModels/Vehicle-Models/L2-CV-Left.add.xml,Collision\BaselinePenetration2\PreparingVehicleModels/Vehicle-Models/L2-CV-Right.add.xml,Collision\BaselinePenetration2\PreparingVehicleModels/Vehicle-Models/L2-AV.add.xml,Collision\BaselinePenetration2\PreparingVehicleModels/Vehicle-Models/L2-AV-Left.add.xml,Collision\BaselinePenetration2\PreparingVehicleModels/Vehicle-Models/L2-AV-Right.add.xml,Collision\BaselinePenetration2\PreparingVehicleModels/Vehicle-Models/L0-HDV.add.xml,Collision\BaselinePenetration2\PreparingVehicleModels/Vehicle-Models/L0-HDV-Left.add.xml,Collision\BaselinePenetration2\PreparingVehicleModels/Vehicle-Models/L0-HDV-Straight.add.xml,Collision\BaselinePenetration2\../Additional-Files/Collision-Traffic-lights.add.xml,Collision\BaselinePenetration2\../Additional-Files/Collision-Traffic-Signs.add.xml"/>
    </input>

    <output>
        <tripinfo-output value="Collision\BaselinePenetration2\Output-Files\TripInfo.xml"/>
    </output>

    <time>
        <begin value="0"/>
        <step-length value="0.1"/>
    </time>

    <processing>
        <ignore-route-errors value="true"/>
        <waiting-time-memory value="300"/>
        <default.action-step-length value="0.1"/>
    </processing>

    <report>
        <no-warnings value="true"/>
    </report>

    <emissions>
        <device.emissions.probability value="1"/>
    </emissions>

    <traci_server>
        <remote-port value="52383"/>
    </traci_server>

    <gui_only>
        <quit-on-end value="true"/>
        <start value="true"/>
        <tracker-interval value="0.1"/>
    </gui_only>

</configuration>
-->

<tripinfos xmlns:xsi="http://www.w3.org/2001/XMLSchema-instance" xsi:noNamespaceSchemaLocation="http://sumo.dlr.de/xsd/tripinfo_file.xsd">
    <tripinfo id="L4-AV-1" depart="126.00" departLane="right-approaching_0" departPos="5.10" departSpeed="0.00" departDelay="0.00" arrival="191.70" arrivalLane="bottom-exit_1" arrivalPos="486.40" arrivalSpeed="18.87" duration="65.70" routeLength="992.21" waitingTime="0.00" waitingCount="0" stopTime="0.00" timeLoss="12.23" rerouteNo="0" devices="tripinfo_L4-AV-1 emissions_L4-AV-1 ssm_L4-AV-1 toc_L4-AV-1 driverstateL4-AV-1" vType="L4-AV-7" speedFactor="1.13" vaporized="">
        <emissions CO_abs="2599.886085" CO2_abs="253996.897492" HC_abs="15.761722" PMx_abs="3.829815" NOx_abs="93.564171" fuel_abs="109.182529" electricity_abs="0"/>
    </tripinfo>
    <tripinfo id="L4-CV-1" depart="138.00" departLane="right-approaching_0" departPos="5.10" departSpeed="0.00" departDelay="0.00" arrival="201.30" arrivalLane="bottom-exit_1" arrivalPos="486.40" arrivalSpeed="18.72" duration="63.30" routeLength="992.21" waitingTime="0.00" waitingCount="0" stopTime="0.00" timeLoss="9.36" rerouteNo="0" devices="tripinfo_L4-CV-1 emissions_L4-CV-1 ssm_L4-CV-1 toc_L4-CV-1 driverstateL4-CV-1" vType="L4-CV-15" speedFactor="1.12" vaporized="">
        <emissions CO_abs="1963.849685" CO2_abs="239259.976876" HC_abs="12.935364" PMx_abs="3.365551" NOx_abs="85.861718" fuel_abs="102.847839" electricity_abs="0"/>
    </tripinfo>
    <tripinfo id="L2-CV-5" depart="150.00" departLane="right-approaching_0" departPos="5.10" departSpeed="0.00" departDelay="0.00" arrival="217.40" arrivalLane="bottom-exit_0" arrivalPos="486.40" arrivalSpeed="16.79" duration="67.40" routeLength="992.21" waitingTime="0.00" waitingCount="0" stopTime="0.00" timeLoss="7.34" rerouteNo="0" devices="tripinfo_L2-CV-5 emissions_L2-CV-5 ssm_L2-CV-5 toc_L2-CV-5 driverstateL2-CV-5" vType="L2-CV-8" speedFactor="1.01" vaporized="">
        <emissions CO_abs="1659.397054" CO2_abs="225991.625715" HC_abs="10.576464" PMx_abs="2.755175" NOx_abs="79.080316" fuel_abs="97.144605" electricity_abs="0"/>
    </tripinfo>
    <tripinfo id="L0-HDV-4" depart="171.90" departLane="top-approaching_0" departPos="5.10" departSpeed="0.00" departDelay="3.90" arrival="234.20" arrivalLane="bottom-exit_1" arrivalPos="486.40" arrivalSpeed="20.53" duration="62.30" routeLength="994.90" waitingTime="0.00" waitingCount="0" stopTime="0.00" timeLoss="13.95" rerouteNo="0" devices="tripinfo_L0-HDV-4 emissions_L0-HDV-4 ssm_L0-HDV-4" vType="L0-HDV-57" speedFactor="1.24" vaporized="">
        <emissions CO_abs="3490.244182" CO2_abs="265869.368284" HC_abs="22.255849" PMx_abs="5.074504" NOx_abs="107.982986" fuel_abs="114.285104" electricity_abs="0"/>
    </tripinfo>
    <tripinfo id="L2-CV-2" depart="132.00" departLane="top-approaching_0" departPos="5.10" departSpeed="0.00" departDelay="0.00" arrival="234.60" arrivalLane="right-exit_1" arrivalPos="486.40" arrivalSpeed="20.01" duration="102.60" routeLength="992.21" waitingTime="28.90" waitingCount="1" stopTime="0.00" timeLoss="52.19" rerouteNo="0" devices="tripinfo_L2-CV-2 emissions_L2-CV-2 ssm_L2-CV-2 toc_L2-CV-2 driverstateL2-CV-2" vType="L2-CV-0" speedFactor="1.20" vaporized="">
        <emissions CO_abs="8536.302766" CO2_abs="361691.495511" HC_abs="46.176075" PMx_abs="6.541107" NOx_abs="143.232258" fuel_abs="155.478371" electricity_abs="0"/>
    </tripinfo>
    <tripinfo id="L2-AV-1" depart="132.00" departLane="bottom-approaching_0" departPos="5.10" departSpeed="0.00" departDelay="0.00" arrival="235.20" arrivalLane="top-exit_0" arrivalPos="486.40" arrivalSpeed="16.59" duration="103.20" routeLength="994.90" waitingTime="27.70" waitingCount="1" stopTime="0.00" timeLoss="43.20" rerouteNo="0" devices="tripinfo_L2-AV-1 emissions_L2-AV-1 ssm_L2-AV-1 toc_L2-AV-1 driverstateL2-AV-1" vType="L2-AV-56" speedFactor="1.00" vaporized="">
        <emissions CO_abs="7255.525669" CO2_abs="318623.735254" HC_abs="37.801914" PMx_abs="5.103933" NOx_abs="122.274780" fuel_abs="136.965508" electricity_abs="0"/>
    </tripinfo>
    <tripinfo id="L2-AV-3" depart="156.00" departLane="top-approaching_0" departPos="5.10" departSpeed="0.00" departDelay="0.00" arrival="235.90" arrivalLane="bottom-exit_0" arrivalPos="486.40" arrivalSpeed="16.74" duration="79.90" routeLength="994.90" waitingTime="3.90" waitingCount="1" stopTime="0.00" timeLoss="20.43" rerouteNo="0" devices="tripinfo_L2-AV-3 emissions_L2-AV-3 ssm_L2-AV-3 toc_L2-AV-3 driverstateL2-AV-3" vType="L2-AV-97" speedFactor="1.00" vaporized="">
        <emissions CO_abs="3436.434608" CO2_abs="261768.817418" HC_abs="19.383166" PMx_abs="3.629333" NOx_abs="95.886235" fuel_abs="112.524279" electricity_abs="0"/>
    </tripinfo>
    <tripinfo id="L4-AV-3" depart="138.00" departLane="bottom-approaching_0" departPos="5.10" departSpeed="0.00" departDelay="0.00" arrival="237.70" arrivalLane="right-exit_0" arrivalPos="486.40" arrivalSpeed="16.76" duration="99.70" routeLength="979.43" waitingTime="18.10" waitingCount="2" stopTime="0.00" timeLoss="40.27" rerouteNo="0" devices="tripinfo_L4-AV-3 emissions_L4-AV-3 ssm_L4-AV-3 toc_L4-AV-3 driverstateL4-AV-3" vType="L4-AV-38" speedFactor="1.01" vaporized="">
        <emissions CO_abs="6351.010266" CO2_abs="303572.794392" HC_abs="33.849719" PMx_abs="4.701142" NOx_abs="115.895149" fuel_abs="130.495419" electricity_abs="0"/>
    </tripinfo>
    <tripinfo id="L2-CV-8" depart="168.00" departLane="top-approaching_0" departPos="5.10" departSpeed="0.00" departDelay="0.00" arrival="240.70" arrivalLane="right-exit_0" arrivalPos="486.40" arrivalSpeed="16.95" duration="72.70" routeLength="992.21" waitingTime="0.00" waitingCount="0" stopTime="0.00" timeLoss="13.16" rerouteNo="0" devices="tripinfo_L2-CV-8 emissions_L2-CV-8 ssm_L2-CV-8 toc_L2-CV-8 driverstateL2-CV-8" vType="L2-CV-0" speedFactor="1.02" vaporized="">
        <emissions CO_abs="2346.981459" CO2_abs="243930.910064" HC_abs="14.419706" PMx_abs="3.198628" NOx_abs="87.790577" fuel_abs="104.856094" electricity_abs="0"/>
    </tripinfo>
    <tripinfo id="L4-AV-10" depart="180.00" departLane="top-approaching_0" departPos="5.10" departSpeed="0.00" departDelay="0.00" arrival="248.90" arrivalLane="bottom-exit_0" arrivalPos="486.40" arrivalSpeed="15.96" duration="68.90" routeLength="994.90" waitingTime="0.00" waitingCount="0" stopTime="0.00" timeLoss="6.48" rerouteNo="0" devices="tripinfo_L4-AV-10 emissions_L4-AV-10 ssm_L4-AV-10 toc_L4-AV-10 driverstateL4-AV-10" vType="L4-AV-10" speedFactor="0.96" vaporized="">
        <emissions CO_abs="1328.473696" CO2_abs="205362.363525" HC_abs="7.679152" PMx_abs="2.065352" NOx_abs="68.488635" fuel_abs="88.277304" electricity_abs="0"/>
    </tripinfo>
    <tripinfo id="L4-CV-3" depart="174.00" departLane="bottom-approaching_0" departPos="5.10" departSpeed="0.00" departDelay="0.00" arrival="252.70" arrivalLane="right-exit_0" arrivalPos="486.40" arrivalSpeed="14.64" duration="78.70" routeLength="979.43" waitingTime="0.00" waitingCount="0" stopTime="0.00" timeLoss="10.69" rerouteNo="0" devices="tripinfo_L4-CV-3 emissions_L4-CV-3 ssm_L4-CV-3 toc_L4-CV-3 driverstateL4-CV-3" vType="L4-CV-22" speedFactor="0.88" vaporized="">
        <emissions CO_abs="2010.363244" CO2_abs="225975.540245" HC_abs="12.662586" PMx_abs="2.480605" NOx_abs="79.230029" fuel_abs="97.138324" electricity_abs="0"/>
    </tripinfo>
    <tripinfo id="L2-CV-7" depart="162.00" departLane="right-approaching_0" departPos="5.10" departSpeed="0.00" departDelay="0.00" arrival="276.40" arrivalLane="top-exit_0" arrivalPos="486.40" arrivalSpeed="17.24" duration="114.40" routeLength="979.43" waitingTime="44.90" waitingCount="1" stopTime="0.00" timeLoss="56.59" rerouteNo="0" devices="tripinfo_L2-CV-7 emissions_L2-CV-7 ssm_L2-CV-7 toc_L2-CV-7 driverstateL2-CV-7" vType="L2-CV-74" speedFactor="1.03" vaporized="">
        <emissions CO_abs="9811.938590" CO2_abs="357164.717547" HC_abs="50.299716" PMx_abs="6.307620" NOx_abs="140.938377" fuel_abs="153.533543" electricity_abs="0"/>
    </tripinfo>
    <tripinfo id="L4-AV-8" depart="168.00" departLane="right-approaching_0" departPos="5.10" departSpeed="0.00" departDelay="0.00" arrival="278.00" arrivalLane="top-exit_0" arrivalPos="486.40" arrivalSpeed="19.66" duration="110.00" routeLength="979.43" waitingTime="0.00" waitingCount="0" stopTime="0.00" timeLoss="59.32" rerouteNo="0" devices="tripinfo_L4-AV-8 emissions_L4-AV-8 ssm_L4-AV-8 toc_L4-AV-8 driverstateL4-AV-8" vType="L4-AV-42" speedFactor="1.18" vaporized="">
        <emissions CO_abs="2945.488451" CO2_abs="205977.318983" HC_abs="17.529305" PMx_abs="3.406961" NOx_abs="80.461239" fuel_abs="88.541101" electricity_abs="0"/>
    </tripinfo>
    <tripinfo id="L4-CV-0" depart="120.00" departLane="left-long-approaching_0" departPos="5.10" departSpeed="0.00" departDelay="0.00" arrival="280.80" arrivalLane="bottom-exit_0" arrivalPos="486.40" arrivalSpeed="16.26" duration="160.80" routeLength="1379.53" waitingTime="58.80" waitingCount="1" stopTime="0.00" timeLoss="74.92" rerouteNo="0" devices="tripinfo_L4-CV-0 emissions_L4-CV-0 ssm_L4-CV-0 toc_L4-CV-0 driverstateL4-CV-0" vType="L4-CV-Right-89" speedFactor="0.98" vaporized="">
        <emissions CO_abs="12507.755538" CO2_abs="462832.465993" HC_abs="63.705791" PMx_abs="7.498832" NOx_abs="178.231623" fuel_abs="198.957471" electricity_abs="0"/>
    </tripinfo>
    <tripinfo id="L0-HDV-1" depart="132.00" departLane="left-long-approaching_0" departPos="5.10" departSpeed="0.00" departDelay="0.00" arrival="282.50" arrivalLane="bottom-exit_1" arrivalPos="486.40" arrivalSpeed="17.33" duration="150.50" routeLength="1379.53" waitingTime="0.00" waitingCount="0" stopTime="0.00" timeLoss="70.07" rerouteNo="0" devices="tripinfo_L0-HDV-1 emissions_L0-HDV-1 ssm_L0-HDV-1" vType="L0-HDV-32" speedFactor="1.04" vaporized="">
        <emissions CO_abs="7514.048916" CO2_abs="354975.749317" HC_abs="42.460553" PMx_abs="6.569134" NOx_abs="144.504682" fuel_abs="152.590435" electricity_abs="0"/>
    </tripinfo>
    <tripinfo id="L2-AV-7" depart="204.00" departLane="right-approaching_0" departPos="5.10" departSpeed="0.00" departDelay="0.00" arrival="285.20" arrivalLane="bottom-exit_1" arrivalPos="486.40" arrivalSpeed="17.19" duration="81.20" routeLength="992.21" waitingTime="6.20" waitingCount="2" stopTime="0.00" timeLoss="22.56" rerouteNo="0" devices="tripinfo_L2-AV-7 emissions_L2-AV-7 ssm_L2-AV-7 toc_L2-AV-7 driverstateL2-AV-7" vType="L2-AV-70" speedFactor="1.03" vaporized="">
        <emissions CO_abs="4015.021468" CO2_abs="273586.155356" HC_abs="22.146243" PMx_abs="4.037741" NOx_abs="101.656052" fuel_abs="117.604086" electricity_abs="0"/>
    </tripinfo>
    <tripinfo id="L2-CV-16" depart="216.10" departLane="right-approaching_0" departPos="5.10" departSpeed="0.00" departDelay="0.10" arrival="285.80" arrivalLane="top-exit_0" arrivalPos="486.40" arrivalSpeed="17.38" duration="69.70" routeLength="979.43" waitingTime="0.00" waitingCount="0" stopTime="0.00" timeLoss="12.37" rerouteNo="0" devices="tripinfo_L2-CV-16 emissions_L2-CV-16 ssm_L2-CV-16 toc_L2-CV-16 driverstateL2-CV-16" vType="L2-CV-1" speedFactor="1.04" vaporized="">
        <emissions CO_abs="2231.668297" CO2_abs="238701.974513" HC_abs="13.903455" PMx_abs="3.183512" NOx_abs="85.950306" fuel_abs="102.608294" electricity_abs="0"/>
    </tripinfo>
    <tripinfo id="L4-AV-0" depart="123.60" departLane="left-long-approaching_0" departPos="5.10" departSpeed="0.00" departDelay="3.60" arrival="286.60" arrivalLane="bottom-exit_0" arrivalPos="486.40" arrivalSpeed="13.99" duration="163.00" routeLength="1379.53" waitingTime="0.00" waitingCount="0" stopTime="0.00" timeLoss="63.25" rerouteNo="0" devices="tripinfo_L4-AV-0 emissions_L4-AV-0 ssm_L4-AV-0 toc_L4-AV-0 driverstateL4-AV-0" vType="L4-AV-Right-74" speedFactor="0.84" vaporized="">
        <emissions CO_abs="2432.542433" CO2_abs="290597.373654" HC_abs="15.235438" PMx_abs="2.897979" NOx_abs="99.774025" fuel_abs="124.917084" electricity_abs="0"/>
    </tripinfo>
    <tripinfo id="L4-AV-6" depart="156.00" departLane="left-long-approaching_0" departPos="5.10" departSpeed="0.00" departDelay="0.00" arrival="290.20" arrivalLane="top-exit_0" arrivalPos="486.40" arrivalSpeed="17.00" duration="134.20" routeLength="1392.31" waitingTime="30.30" waitingCount="2" stopTime="0.00" timeLoss="51.36" rerouteNo="0" devices="tripinfo_L4-AV-6 emissions_L4-AV-6 ssm_L4-AV-6 toc_L4-AV-6 driverstateL4-AV-6" vType="L4-AV-Left-30" speedFactor="1.02" vaporized="">
        <emissions CO_abs="8338.953799" CO2_abs="403110.093050" HC_abs="43.543449" PMx_abs="6.098889" NOx_abs="150.885489" fuel_abs="173.283220" electricity_abs="0"/>
    </tripinfo>
    <tripinfo id="L2-AV-9" depart="228.10" departLane="right-approaching_0" departPos="5.10" departSpeed="0.00" departDelay="0.10" arrival="295.90" arrivalLane="top-exit_1" arrivalPos="486.40" arrivalSpeed="17.68" duration="67.80" routeLength="979.43" waitingTime="0.00" waitingCount="0" stopTime="0.00" timeLoss="11.51" rerouteNo="0" devices="tripinfo_L2-AV-9 emissions_L2-AV-9 ssm_L2-AV-9 toc_L2-AV-9 driverstateL2-AV-9" vType="L2-AV-89" speedFactor="1.06" vaporized="">
        <emissions CO_abs="2050.916979" CO2_abs="233031.709197" HC_abs="12.465869" PMx_abs="3.080712" NOx_abs="83.329406" fuel_abs="100.170751" electricity_abs="0"/>
    </tripinfo>
    <tripinfo id="L4-AV-16" depart="216.00" departLane="right-approaching_0" departPos="5.10" departSpeed="0.00" departDelay="0.00" arrival="297.80" arrivalLane="bottom-exit_0" arrivalPos="486.40" arrivalSpeed="14.25" duration="81.80" routeLength="992.21" waitingTime="0.00" waitingCount="0" stopTime="0.00" timeLoss="11.08" rerouteNo="0" devices="tripinfo_L4-AV-16 emissions_L4-AV-16 ssm_L4-AV-16 toc_L4-AV-16 driverstateL4-AV-16" vType="L4-AV-58" speedFactor="0.85" vaporized="">
        <emissions CO_abs="2367.262292" CO2_abs="243436.671740" HC_abs="14.487786" PMx_abs="2.902802" NOx_abs="87.428991" fuel_abs="104.643943" electricity_abs="0"/>
    </tripinfo>
    <tripinfo id="L2-CV-17" depart="222.00" departLane="right-approaching_0" departPos="5.10" departSpeed="0.00" departDelay="0.00" arrival="298.80" arrivalLane="bottom-exit_1" arrivalPos="486.40" arrivalSpeed="17.04" duration="76.80" routeLength="992.21" waitingTime="0.10" waitingCount="1" stopTime="0.00" timeLoss="17.60" rerouteNo="0" devices="tripinfo_L2-CV-17 emissions_L2-CV-17 ssm_L2-CV-17 toc_L2-CV-17 driverstateL2-CV-17" vType="L2-CV-94" speedFactor="1.02" vaporized="">
        <emissions CO_abs="2669.969683" CO2_abs="248187.449906" HC_abs="16.248965" PMx_abs="3.347252" NOx_abs="90.473472" fuel_abs="106.685906" electricity_abs="0"/>
    </tripinfo>
    <tripinfo id="L2-CV-15" depart="210.00" departLane="left-long-approaching_0" departPos="5.10" departSpeed="0.00" departDelay="0.00" arrival="302.90" arrivalLane="bottom-exit_0" arrivalPos="486.40" arrivalSpeed="16.27" duration="92.90" routeLength="1379.53" waitingTime="0.00" waitingCount="0" stopTime="0.00" timeLoss="7.05" rerouteNo="0" devices="tripinfo_L2-CV-15 emissions_L2-CV-15 ssm_L2-CV-15 toc_L2-CV-15 driverstateL2-CV-15" vType="L2-CV-Right-98" speedFactor="0.98" vaporized="">
        <emissions CO_abs="1703.123066" CO2_abs="289476.427716" HC_abs="10.753759" PMx_abs="3.156330" NOx_abs="98.284345" fuel_abs="124.434259" electricity_abs="0"/>
    </tripinfo>
    <tripinfo id="L2-CV-12" depart="192.00" departLane="left-long-approaching_0" departPos="5.10" departSpeed="0.00" departDelay="0.00" arrival="305.20" arrivalLane="top-exit_0" arrivalPos="486.40" arrivalSpeed="19.13" duration="113.20" routeLength="1392.31" waitingTime="9.50" waitingCount="2" stopTime="0.00" timeLoss="39.60" rerouteNo="0" devices="tripinfo_L2-CV-12 emissions_L2-CV-12 ssm_L2-CV-12 toc_L2-CV-12 driverstateL2-CV-12" vType="L2-CV-Left-79" speedFactor="1.15" vaporized="">
        <emissions CO_abs="5834.544640" CO2_abs="380332.167948" HC_abs="32.994667" PMx_abs="5.786207" NOx_abs="140.752202" fuel_abs="163.490385" electricity_abs="0"/>
    </tripinfo>
    <tripinfo id="L4-AV-13" depart="198.00" departLane="left-long-approaching_0" departPos="5.10" departSpeed="0.00" departDelay="0.00" arrival="308.30" arrivalLane="top-exit_0" arrivalPos="486.40" arrivalSpeed="18.14" duration="110.30" routeLength="1392.31" waitingTime="0.10" waitingCount="1" stopTime="0.00" timeLoss="32.62" rerouteNo="0" devices="tripinfo_L4-AV-13 emissions_L4-AV-13 ssm_L4-AV-13 toc_L4-AV-13 driverstateL4-AV-13" vType="L4-AV-Left-14" speedFactor="1.09" vaporized="">
        <emissions CO_abs="3497.298949" CO2_abs="276886.119393" HC_abs="20.584981" PMx_abs="4.004568" NOx_abs="102.836952" fuel_abs="119.022351" electricity_abs="0"/>
    </tripinfo>
</tripinfos>
