<?xml version="1.0" encoding="UTF-8"?>

<!-- generated on 03/28/21 23:42:30 by Eclipse SUMO sumo Version 1.8.0
<configuration xmlns:xsi="http://www.w3.org/2001/XMLSchema-instance" xsi:noNamespaceSchemaLocation="http://sumo.dlr.de/xsd/sumoConfiguration.xsd">

    <input>
        <net-file value="Collision\BaselinePenetration2\../CollisionIntersection.net.xml"/>
        <route-files value="Collision\BaselinePenetration2\../CrashedVehicleRoutes.rou.xml,Collision\BaselinePenetration2\Route-Files/L4-CV-Route.rou.xml,Collision\BaselinePenetration2\Route-Files/L4-AV-Route.rou.xml,Collision\BaselinePenetration2\Route-Files/L2-CV-Route.rou.xml,Collision\BaselinePenetration2\Route-Files/L2-AV-Route.rou.xml,Collision\BaselinePenetration2\Route-Files/L0-HDV-Route.rou.xml"/>
        <additional-files value="Collision\BaselinePenetration2\../Additional-Files/Collision-Detectors.add.xml,Collision\BaselinePenetration2\../Additional-Files/Collision-TMS-Rerouters.add.xml,Collision\BaselinePenetration2\PreparingVehicleModels/Vehicle-Models/L4-CV.add.xml,Collision\BaselinePenetration2\PreparingVehicleModels/Vehicle-Models/L4-CV-Left.add.xml,Collision\BaselinePenetration2\PreparingVehicleModels/Vehicle-Models/L4-CV-Right.add.xml,Collision\BaselinePenetration2\PreparingVehicleModels/Vehicle-Models/L4-AV.add.xml,Collision\BaselinePenetration2\PreparingVehicleModels/Vehicle-Models/L4-AV-Left.add.xml,Collision\BaselinePenetration2\PreparingVehicleModels/Vehicle-Models/L4-AV-Right.add.xml,Collision\BaselinePenetration2\PreparingVehicleModels/Vehicle-Models/L2-CV.add.xml,Collision\BaselinePenetration2\PreparingVehicleModels/Vehicle-Models/L2-CV-Left.add.xml,Collision\BaselinePenetration2\PreparingVehicleModels/Vehicle-Models/L2-CV-Right.add.xml,Collision\BaselinePenetration2\PreparingVehicleModels/Vehicle-Models/L2-AV.add.xml,Collision\BaselinePenetration2\PreparingVehicleModels/Vehicle-Models/L2-AV-Left.add.xml,Collision\BaselinePenetration2\PreparingVehicleModels/Vehicle-Models/L2-AV-Right.add.xml,Collision\BaselinePenetration2\PreparingVehicleModels/Vehicle-Models/L0-HDV.add.xml,Collision\BaselinePenetration2\PreparingVehicleModels/Vehicle-Models/L0-HDV-Left.add.xml,Collision\BaselinePenetration2\PreparingVehicleModels/Vehicle-Models/L0-HDV-Straight.add.xml,Collision\BaselinePenetration2\../Additional-Files/Collision-Traffic-lights.add.xml,Collision\BaselinePenetration2\../Additional-Files/Collision-Traffic-Signs.add.xml"/>
    </input>

    <output>
        <tripinfo-output value="Collision\BaselinePenetration2\Output-Files\TripInfo.xml"/>
    </output>

    <time>
        <begin value="0"/>
        <step-length value="0.1"/>
    </time>

    <processing>
        <ignore-route-errors value="true"/>
        <waiting-time-memory value="300"/>
        <default.action-step-length value="0.1"/>
    </processing>

    <report>
        <no-warnings value="true"/>
    </report>

    <emissions>
        <device.emissions.probability value="1"/>
    </emissions>

    <traci_server>
        <remote-port value="49713"/>
    </traci_server>

    <gui_only>
        <quit-on-end value="true"/>
        <start value="true"/>
        <tracker-interval value="0.1"/>
    </gui_only>

</configuration>
-->

<tripinfos xmlns:xsi="http://www.w3.org/2001/XMLSchema-instance" xsi:noNamespaceSchemaLocation="http://sumo.dlr.de/xsd/tripinfo_file.xsd">
    <tripinfo id="L4-AV-1" depart="126.00" departLane="right-approaching_0" departPos="5.10" departSpeed="0.00" departDelay="0.00" arrival="191.70" arrivalLane="bottom-exit_1" arrivalPos="486.40" arrivalSpeed="18.87" duration="65.70" routeLength="992.21" waitingTime="0.00" waitingCount="0" stopTime="0.00" timeLoss="12.23" rerouteNo="0" devices="tripinfo_L4-AV-1 emissions_L4-AV-1 ssm_L4-AV-1 toc_L4-AV-1 driverstateL4-AV-1" vType="L4-AV-7" speedFactor="1.13" vaporized="">
        <emissions CO_abs="2599.886085" CO2_abs="253996.897492" HC_abs="15.761722" PMx_abs="3.829815" NOx_abs="93.564171" fuel_abs="109.182529" electricity_abs="0"/>
    </tripinfo>
    <tripinfo id="L4-CV-1" depart="138.00" departLane="right-approaching_0" departPos="5.10" departSpeed="0.00" departDelay="0.00" arrival="201.30" arrivalLane="bottom-exit_1" arrivalPos="486.40" arrivalSpeed="18.72" duration="63.30" routeLength="992.21" waitingTime="0.00" waitingCount="0" stopTime="0.00" timeLoss="9.36" rerouteNo="0" devices="tripinfo_L4-CV-1 emissions_L4-CV-1 ssm_L4-CV-1 toc_L4-CV-1 driverstateL4-CV-1" vType="L4-CV-15" speedFactor="1.12" vaporized="">
        <emissions CO_abs="1963.849685" CO2_abs="239259.976876" HC_abs="12.935364" PMx_abs="3.365551" NOx_abs="85.861718" fuel_abs="102.847839" electricity_abs="0"/>
    </tripinfo>
    <tripinfo id="L2-CV-5" depart="150.00" departLane="right-approaching_0" departPos="5.10" departSpeed="0.00" departDelay="0.00" arrival="217.40" arrivalLane="bottom-exit_0" arrivalPos="486.40" arrivalSpeed="16.79" duration="67.40" routeLength="992.21" waitingTime="0.00" waitingCount="0" stopTime="0.00" timeLoss="7.34" rerouteNo="0" devices="tripinfo_L2-CV-5 emissions_L2-CV-5 ssm_L2-CV-5 toc_L2-CV-5 driverstateL2-CV-5" vType="L2-CV-8" speedFactor="1.01" vaporized="">
        <emissions CO_abs="1659.397054" CO2_abs="225991.625715" HC_abs="10.576464" PMx_abs="2.755175" NOx_abs="79.080316" fuel_abs="97.144605" electricity_abs="0"/>
    </tripinfo>
    <tripinfo id="L0-HDV-4" depart="171.90" departLane="top-approaching_0" departPos="5.10" departSpeed="0.00" departDelay="3.90" arrival="234.20" arrivalLane="bottom-exit_1" arrivalPos="486.40" arrivalSpeed="20.53" duration="62.30" routeLength="994.90" waitingTime="0.00" waitingCount="0" stopTime="0.00" timeLoss="13.95" rerouteNo="0" devices="tripinfo_L0-HDV-4 emissions_L0-HDV-4 ssm_L0-HDV-4" vType="L0-HDV-57" speedFactor="1.24" vaporized="">
        <emissions CO_abs="3490.244182" CO2_abs="265869.368284" HC_abs="22.255849" PMx_abs="5.074504" NOx_abs="107.982986" fuel_abs="114.285104" electricity_abs="0"/>
    </tripinfo>
    <tripinfo id="L2-CV-2" depart="132.00" departLane="top-approaching_0" departPos="5.10" departSpeed="0.00" departDelay="0.00" arrival="234.60" arrivalLane="right-exit_1" arrivalPos="486.40" arrivalSpeed="20.01" duration="102.60" routeLength="992.21" waitingTime="28.90" waitingCount="1" stopTime="0.00" timeLoss="52.19" rerouteNo="0" devices="tripinfo_L2-CV-2 emissions_L2-CV-2 ssm_L2-CV-2 toc_L2-CV-2 driverstateL2-CV-2" vType="L2-CV-0" speedFactor="1.20" vaporized="">
        <emissions CO_abs="8536.302766" CO2_abs="361691.495511" HC_abs="46.176075" PMx_abs="6.541107" NOx_abs="143.232258" fuel_abs="155.478371" electricity_abs="0"/>
    </tripinfo>
    <tripinfo id="L2-AV-1" depart="132.00" departLane="bottom-approaching_0" departPos="5.10" departSpeed="0.00" departDelay="0.00" arrival="235.20" arrivalLane="top-exit_0" arrivalPos="486.40" arrivalSpeed="16.59" duration="103.20" routeLength="994.90" waitingTime="27.70" waitingCount="1" stopTime="0.00" timeLoss="43.20" rerouteNo="0" devices="tripinfo_L2-AV-1 emissions_L2-AV-1 ssm_L2-AV-1 toc_L2-AV-1 driverstateL2-AV-1" vType="L2-AV-56" speedFactor="1.00" vaporized="">
        <emissions CO_abs="7255.525669" CO2_abs="318623.735254" HC_abs="37.801914" PMx_abs="5.103933" NOx_abs="122.274780" fuel_abs="136.965508" electricity_abs="0"/>
    </tripinfo>
    <tripinfo id="L2-AV-3" depart="156.00" departLane="top-approaching_0" departPos="5.10" departSpeed="0.00" departDelay="0.00" arrival="235.90" arrivalLane="bottom-exit_0" arrivalPos="486.40" arrivalSpeed="16.74" duration="79.90" routeLength="994.90" waitingTime="3.90" waitingCount="1" stopTime="0.00" timeLoss="20.43" rerouteNo="0" devices="tripinfo_L2-AV-3 emissions_L2-AV-3 ssm_L2-AV-3 toc_L2-AV-3 driverstateL2-AV-3" vType="L2-AV-97" speedFactor="1.00" vaporized="">
        <emissions CO_abs="3436.434608" CO2_abs="261768.817418" HC_abs="19.383166" PMx_abs="3.629333" NOx_abs="95.886235" fuel_abs="112.524279" electricity_abs="0"/>
    </tripinfo>
    <tripinfo id="L4-AV-3" depart="138.00" departLane="bottom-approaching_0" departPos="5.10" departSpeed="0.00" departDelay="0.00" arrival="237.70" arrivalLane="right-exit_0" arrivalPos="486.40" arrivalSpeed="16.76" duration="99.70" routeLength="979.43" waitingTime="18.10" waitingCount="2" stopTime="0.00" timeLoss="40.27" rerouteNo="0" devices="tripinfo_L4-AV-3 emissions_L4-AV-3 ssm_L4-AV-3 toc_L4-AV-3 driverstateL4-AV-3" vType="L4-AV-38" speedFactor="1.01" vaporized="">
        <emissions CO_abs="6351.010266" CO2_abs="303572.794392" HC_abs="33.849719" PMx_abs="4.701142" NOx_abs="115.895149" fuel_abs="130.495419" electricity_abs="0"/>
    </tripinfo>
    <tripinfo id="L2-CV-8" depart="168.00" departLane="top-approaching_0" departPos="5.10" departSpeed="0.00" departDelay="0.00" arrival="240.70" arrivalLane="right-exit_0" arrivalPos="486.40" arrivalSpeed="16.95" duration="72.70" routeLength="992.21" waitingTime="0.00" waitingCount="0" stopTime="0.00" timeLoss="13.16" rerouteNo="0" devices="tripinfo_L2-CV-8 emissions_L2-CV-8 ssm_L2-CV-8 toc_L2-CV-8 driverstateL2-CV-8" vType="L2-CV-0" speedFactor="1.02" vaporized="">
        <emissions CO_abs="2346.981459" CO2_abs="243930.910064" HC_abs="14.419706" PMx_abs="3.198628" NOx_abs="87.790577" fuel_abs="104.856094" electricity_abs="0"/>
    </tripinfo>
    <tripinfo id="L4-AV-10" depart="180.00" departLane="top-approaching_0" departPos="5.10" departSpeed="0.00" departDelay="0.00" arrival="248.90" arrivalLane="bottom-exit_0" arrivalPos="486.40" arrivalSpeed="15.96" duration="68.90" routeLength="994.90" waitingTime="0.00" waitingCount="0" stopTime="0.00" timeLoss="6.48" rerouteNo="0" devices="tripinfo_L4-AV-10 emissions_L4-AV-10 ssm_L4-AV-10 toc_L4-AV-10 driverstateL4-AV-10" vType="L4-AV-10" speedFactor="0.96" vaporized="">
        <emissions CO_abs="1328.473696" CO2_abs="205362.363525" HC_abs="7.679152" PMx_abs="2.065352" NOx_abs="68.488635" fuel_abs="88.277304" electricity_abs="0"/>
    </tripinfo>
    <tripinfo id="L4-CV-3" depart="174.00" departLane="bottom-approaching_0" departPos="5.10" departSpeed="0.00" departDelay="0.00" arrival="252.70" arrivalLane="right-exit_0" arrivalPos="486.40" arrivalSpeed="14.64" duration="78.70" routeLength="979.43" waitingTime="0.00" waitingCount="0" stopTime="0.00" timeLoss="10.69" rerouteNo="0" devices="tripinfo_L4-CV-3 emissions_L4-CV-3 ssm_L4-CV-3 toc_L4-CV-3 driverstateL4-CV-3" vType="L4-CV-22" speedFactor="0.88" vaporized="">
        <emissions CO_abs="2010.363244" CO2_abs="225975.540245" HC_abs="12.662586" PMx_abs="2.480605" NOx_abs="79.230029" fuel_abs="97.138324" electricity_abs="0"/>
    </tripinfo>
    <tripinfo id="L2-CV-7" depart="162.00" departLane="right-approaching_0" departPos="5.10" departSpeed="0.00" departDelay="0.00" arrival="276.40" arrivalLane="top-exit_0" arrivalPos="486.40" arrivalSpeed="17.24" duration="114.40" routeLength="979.43" waitingTime="44.90" waitingCount="1" stopTime="0.00" timeLoss="56.59" rerouteNo="0" devices="tripinfo_L2-CV-7 emissions_L2-CV-7 ssm_L2-CV-7 toc_L2-CV-7 driverstateL2-CV-7" vType="L2-CV-74" speedFactor="1.03" vaporized="">
        <emissions CO_abs="9811.938590" CO2_abs="357164.717547" HC_abs="50.299716" PMx_abs="6.307620" NOx_abs="140.938377" fuel_abs="153.533543" electricity_abs="0"/>
    </tripinfo>
    <tripinfo id="L4-AV-8" depart="168.00" departLane="right-approaching_0" departPos="5.10" departSpeed="0.00" departDelay="0.00" arrival="278.00" arrivalLane="top-exit_0" arrivalPos="486.40" arrivalSpeed="19.66" duration="110.00" routeLength="979.43" waitingTime="0.00" waitingCount="0" stopTime="0.00" timeLoss="59.32" rerouteNo="0" devices="tripinfo_L4-AV-8 emissions_L4-AV-8 ssm_L4-AV-8 toc_L4-AV-8 driverstateL4-AV-8" vType="L4-AV-42" speedFactor="1.18" vaporized="">
        <emissions CO_abs="2945.488451" CO2_abs="205977.318983" HC_abs="17.529305" PMx_abs="3.406961" NOx_abs="80.461239" fuel_abs="88.541101" electricity_abs="0"/>
    </tripinfo>
    <tripinfo id="L4-CV-0" depart="120.00" departLane="left-long-approaching_0" departPos="5.10" departSpeed="0.00" departDelay="0.00" arrival="280.80" arrivalLane="bottom-exit_0" arrivalPos="486.40" arrivalSpeed="16.26" duration="160.80" routeLength="1379.53" waitingTime="58.80" waitingCount="1" stopTime="0.00" timeLoss="74.92" rerouteNo="0" devices="tripinfo_L4-CV-0 emissions_L4-CV-0 ssm_L4-CV-0 toc_L4-CV-0 driverstateL4-CV-0" vType="L4-CV-Right-89" speedFactor="0.98" vaporized="">
        <emissions CO_abs="12507.755538" CO2_abs="462832.465993" HC_abs="63.705791" PMx_abs="7.498832" NOx_abs="178.231623" fuel_abs="198.957471" electricity_abs="0"/>
    </tripinfo>
    <tripinfo id="L0-HDV-1" depart="132.00" departLane="left-long-approaching_0" departPos="5.10" departSpeed="0.00" departDelay="0.00" arrival="282.50" arrivalLane="bottom-exit_1" arrivalPos="486.40" arrivalSpeed="17.33" duration="150.50" routeLength="1379.53" waitingTime="0.00" waitingCount="0" stopTime="0.00" timeLoss="70.06" rerouteNo="0" devices="tripinfo_L0-HDV-1 emissions_L0-HDV-1 ssm_L0-HDV-1" vType="L0-HDV-32" speedFactor="1.04" vaporized="">
        <emissions CO_abs="7507.555027" CO2_abs="355209.601848" HC_abs="42.434980" PMx_abs="6.564384" NOx_abs="144.549391" fuel_abs="152.690962" electricity_abs="0"/>
    </tripinfo>
    <tripinfo id="L2-AV-7" depart="204.00" departLane="right-approaching_0" departPos="5.10" departSpeed="0.00" departDelay="0.00" arrival="285.20" arrivalLane="bottom-exit_1" arrivalPos="486.40" arrivalSpeed="17.19" duration="81.20" routeLength="992.21" waitingTime="6.20" waitingCount="2" stopTime="0.00" timeLoss="22.56" rerouteNo="0" devices="tripinfo_L2-AV-7 emissions_L2-AV-7 ssm_L2-AV-7 toc_L2-AV-7 driverstateL2-AV-7" vType="L2-AV-70" speedFactor="1.03" vaporized="">
        <emissions CO_abs="4015.021519" CO2_abs="273586.162189" HC_abs="22.146243" PMx_abs="4.037741" NOx_abs="101.656054" fuel_abs="117.604089" electricity_abs="0"/>
    </tripinfo>
    <tripinfo id="L2-CV-16" depart="216.10" departLane="right-approaching_0" departPos="5.10" departSpeed="0.00" departDelay="0.10" arrival="285.80" arrivalLane="top-exit_0" arrivalPos="486.40" arrivalSpeed="17.38" duration="69.70" routeLength="979.43" waitingTime="0.00" waitingCount="0" stopTime="0.00" timeLoss="12.37" rerouteNo="0" devices="tripinfo_L2-CV-16 emissions_L2-CV-16 ssm_L2-CV-16 toc_L2-CV-16 driverstateL2-CV-16" vType="L2-CV-1" speedFactor="1.04" vaporized="">
        <emissions CO_abs="2231.668297" CO2_abs="238701.974513" HC_abs="13.903455" PMx_abs="3.183512" NOx_abs="85.950306" fuel_abs="102.608294" electricity_abs="0"/>
    </tripinfo>
    <tripinfo id="L4-AV-0" depart="123.60" departLane="left-long-approaching_0" departPos="5.10" departSpeed="0.00" departDelay="3.60" arrival="286.60" arrivalLane="bottom-exit_0" arrivalPos="486.40" arrivalSpeed="13.99" duration="163.00" routeLength="1379.53" waitingTime="0.00" waitingCount="0" stopTime="0.00" timeLoss="63.25" rerouteNo="0" devices="tripinfo_L4-AV-0 emissions_L4-AV-0 ssm_L4-AV-0 toc_L4-AV-0 driverstateL4-AV-0" vType="L4-AV-Right-74" speedFactor="0.84" vaporized="">
        <emissions CO_abs="2432.542433" CO2_abs="290597.373654" HC_abs="15.235438" PMx_abs="2.897979" NOx_abs="99.774025" fuel_abs="124.917084" electricity_abs="0"/>
    </tripinfo>
    <tripinfo id="L2-AV-9" depart="228.10" departLane="right-approaching_0" departPos="5.10" departSpeed="0.00" departDelay="0.10" arrival="296.80" arrivalLane="top-exit_0" arrivalPos="486.40" arrivalSpeed="17.68" duration="68.70" routeLength="979.43" waitingTime="0.00" waitingCount="0" stopTime="0.00" timeLoss="12.44" rerouteNo="0" devices="tripinfo_L2-AV-9 emissions_L2-AV-9 ssm_L2-AV-9 toc_L2-AV-9 driverstateL2-AV-9" vType="L2-AV-89" speedFactor="1.06" vaporized="">
        <emissions CO_abs="1986.341747" CO2_abs="233276.244038" HC_abs="12.454177" PMx_abs="3.042798" NOx_abs="83.399469" fuel_abs="100.275901" electricity_abs="0"/>
    </tripinfo>
    <tripinfo id="L4-AV-16" depart="216.00" departLane="right-approaching_0" departPos="5.10" departSpeed="0.00" departDelay="0.00" arrival="297.80" arrivalLane="bottom-exit_0" arrivalPos="486.40" arrivalSpeed="14.25" duration="81.80" routeLength="992.21" waitingTime="0.00" waitingCount="0" stopTime="0.00" timeLoss="11.08" rerouteNo="0" devices="tripinfo_L4-AV-16 emissions_L4-AV-16 ssm_L4-AV-16 toc_L4-AV-16 driverstateL4-AV-16" vType="L4-AV-58" speedFactor="0.85" vaporized="">
        <emissions CO_abs="2367.262292" CO2_abs="243436.671740" HC_abs="14.487786" PMx_abs="2.902802" NOx_abs="87.428991" fuel_abs="104.643943" electricity_abs="0"/>
    </tripinfo>
    <tripinfo id="L2-CV-17" depart="222.00" departLane="right-approaching_0" departPos="5.10" departSpeed="0.00" departDelay="0.00" arrival="298.80" arrivalLane="bottom-exit_1" arrivalPos="486.40" arrivalSpeed="17.04" duration="76.80" routeLength="992.21" waitingTime="0.10" waitingCount="1" stopTime="0.00" timeLoss="17.60" rerouteNo="0" devices="tripinfo_L2-CV-17 emissions_L2-CV-17 ssm_L2-CV-17 toc_L2-CV-17 driverstateL2-CV-17" vType="L2-CV-94" speedFactor="1.02" vaporized="">
        <emissions CO_abs="2669.969683" CO2_abs="248187.449906" HC_abs="16.248965" PMx_abs="3.347252" NOx_abs="90.473472" fuel_abs="106.685906" electricity_abs="0"/>
    </tripinfo>
    <tripinfo id="L2-CV-15" depart="210.00" departLane="left-long-approaching_0" departPos="5.10" departSpeed="0.00" departDelay="0.00" arrival="302.90" arrivalLane="bottom-exit_0" arrivalPos="486.40" arrivalSpeed="16.27" duration="92.90" routeLength="1379.53" waitingTime="0.00" waitingCount="0" stopTime="0.00" timeLoss="7.05" rerouteNo="0" devices="tripinfo_L2-CV-15 emissions_L2-CV-15 ssm_L2-CV-15 toc_L2-CV-15 driverstateL2-CV-15" vType="L2-CV-Right-98" speedFactor="0.98" vaporized="">
        <emissions CO_abs="1703.123066" CO2_abs="289476.427716" HC_abs="10.753759" PMx_abs="3.156330" NOx_abs="98.284345" fuel_abs="124.434259" electricity_abs="0"/>
    </tripinfo>
    <tripinfo id="L4-AV-6" depart="156.00" departLane="left-long-approaching_0" departPos="5.10" departSpeed="0.00" departDelay="0.00" arrival="304.80" arrivalLane="top-exit_0" arrivalPos="486.40" arrivalSpeed="17.00" duration="148.80" routeLength="1392.31" waitingTime="44.70" waitingCount="3" stopTime="0.00" timeLoss="65.93" rerouteNo="0" devices="tripinfo_L4-AV-6 emissions_L4-AV-6 ssm_L4-AV-6 toc_L4-AV-6 driverstateL4-AV-6" vType="L4-AV-Left-30" speedFactor="1.02" vaporized="">
        <emissions CO_abs="10736.718690" CO2_abs="427452.051246" HC_abs="55.388288" PMx_abs="6.979923" NOx_abs="164.494386" fuel_abs="183.747817" electricity_abs="0"/>
    </tripinfo>
    <tripinfo id="L2-CV-12" depart="192.00" departLane="left-long-approaching_0" departPos="5.10" departSpeed="0.00" departDelay="0.00" arrival="306.30" arrivalLane="top-exit_1" arrivalPos="486.40" arrivalSpeed="19.13" duration="114.30" routeLength="1392.31" waitingTime="11.80" waitingCount="2" stopTime="0.00" timeLoss="40.75" rerouteNo="0" devices="tripinfo_L2-CV-12 emissions_L2-CV-12 ssm_L2-CV-12 toc_L2-CV-12 driverstateL2-CV-12" vType="L2-CV-Left-79" speedFactor="1.15" vaporized="">
        <emissions CO_abs="4692.897850" CO2_abs="360847.739423" HC_abs="27.161701" PMx_abs="5.310442" NOx_abs="131.753146" fuel_abs="155.114328" electricity_abs="0"/>
    </tripinfo>
    <tripinfo id="L4-AV-13" depart="198.00" departLane="left-long-approaching_0" departPos="5.10" departSpeed="0.00" departDelay="0.00" arrival="309.30" arrivalLane="top-exit_0" arrivalPos="486.40" arrivalSpeed="18.14" duration="111.30" routeLength="1392.31" waitingTime="0.10" waitingCount="1" stopTime="0.00" timeLoss="33.61" rerouteNo="0" devices="tripinfo_L4-AV-13 emissions_L4-AV-13 ssm_L4-AV-13 toc_L4-AV-13 driverstateL4-AV-13" vType="L4-AV-Left-14" speedFactor="1.09" vaporized="">
        <emissions CO_abs="3348.985039" CO2_abs="272266.055085" HC_abs="19.737222" PMx_abs="3.886491" NOx_abs="100.564804" fuel_abs="117.036376" electricity_abs="0"/>
    </tripinfo>
    <tripinfo id="L4-CV-6" depart="228.00" departLane="left-long-approaching_0" departPos="5.10" departSpeed="0.00" departDelay="0.00" arrival="319.50" arrivalLane="top-exit_0" arrivalPos="486.40" arrivalSpeed="16.97" duration="91.50" routeLength="1392.31" waitingTime="0.00" waitingCount="0" stopTime="0.00" timeLoss="8.48" rerouteNo="0" devices="tripinfo_L4-CV-6 emissions_L4-CV-6 ssm_L4-CV-6 toc_L4-CV-6 driverstateL4-CV-6" vType="L4-CV-Left-59" speedFactor="1.02" vaporized="">
        <emissions CO_abs="1837.724178" CO2_abs="292170.501647" HC_abs="11.306517" PMx_abs="3.284477" NOx_abs="99.106942" fuel_abs="125.592328" electricity_abs="0"/>
    </tripinfo>
    <tripinfo id="L4-AV-4" depart="144.00" departLane="bottom-approaching_0" departPos="5.10" departSpeed="0.00" departDelay="0.00" arrival="335.20" arrivalLane="left-exit_0" arrivalPos="810.00" arrivalSpeed="16.58" duration="191.20" routeLength="1392.31" waitingTime="84.20" waitingCount="3" stopTime="0.00" timeLoss="106.27" rerouteNo="0" devices="tripinfo_L4-AV-4 emissions_L4-AV-4 ssm_L4-AV-4 toc_L4-AV-4 driverstateL4-AV-4" vType="L4-AV-41@L4-AV-4" speedFactor="0.99" vaporized="">
        <emissions CO_abs="17111.421904" CO2_abs="536463.637933" HC_abs="86.943248" PMx_abs="9.654872" NOx_abs="214.201019" fuel_abs="230.610075" electricity_abs="0"/>
    </tripinfo>
    <tripinfo id="L4-AV-2" depart="132.00" departLane="right-approaching_0" departPos="5.10" departSpeed="0.00" departDelay="0.00" arrival="338.30" arrivalLane="left-exit_0" arrivalPos="810.00" arrivalSpeed="19.65" duration="206.30" routeLength="1395.12" waitingTime="72.70" waitingCount="2" stopTime="0.00" timeLoss="135.17" rerouteNo="0" devices="tripinfo_L4-AV-2 emissions_L4-AV-2 ssm_L4-AV-2 toc_L4-AV-2 driverstateL4-AV-2" vType="L4-AV-21@L4-AV-2" speedFactor="1.18" vaporized="">
        <emissions CO_abs="16312.482821" CO2_abs="469041.457358" HC_abs="84.013072" PMx_abs="9.741213" NOx_abs="196.640401" fuel_abs="201.626636" electricity_abs="0"/>
    </tripinfo>
    <tripinfo id="L0-HDV-9" depart="228.00" departLane="top-approaching_0" departPos="5.10" departSpeed="0.00" departDelay="0.00" arrival="338.80" arrivalLane="bottom-exit_0" arrivalPos="486.40" arrivalSpeed="17.51" duration="110.80" routeLength="994.90" waitingTime="41.10" waitingCount="1" stopTime="0.00" timeLoss="54.14" rerouteNo="0" devices="tripinfo_L0-HDV-9 emissions_L0-HDV-9 ssm_L0-HDV-9" vType="L0-HDV-78" speedFactor="1.06" vaporized="">
        <emissions CO_abs="9696.036219" CO2_abs="321625.641506" HC_abs="51.606224" PMx_abs="6.599096" NOx_abs="135.509828" fuel_abs="138.255937" electricity_abs="0"/>
    </tripinfo>
    <tripinfo id="L2-CV-22" depart="252.00" departLane="top-approaching_0" departPos="5.10" departSpeed="0.00" departDelay="0.00" arrival="341.80" arrivalLane="bottom-exit_0" arrivalPos="486.40" arrivalSpeed="17.62" duration="89.80" routeLength="994.90" waitingTime="12.90" waitingCount="1" stopTime="0.00" timeLoss="33.38" rerouteNo="0" devices="tripinfo_L2-CV-22 emissions_L2-CV-22 ssm_L2-CV-22 toc_L2-CV-22 driverstateL2-CV-22" vType="L2-CV-30" speedFactor="1.06" vaporized="">
        <emissions CO_abs="3835.863863" CO2_abs="274728.093006" HC_abs="21.933151" PMx_abs="4.077382" NOx_abs="102.022978" fuel_abs="118.094893" electricity_abs="0"/>
    </tripinfo>
    <tripinfo id="L4-AV-14" depart="204.00" departLane="bottom-approaching_0" departPos="5.10" departSpeed="0.00" departDelay="0.00" arrival="343.20" arrivalLane="right-exit_0" arrivalPos="486.40" arrivalSpeed="15.01" duration="139.20" routeLength="979.43" waitingTime="61.90" waitingCount="1" stopTime="0.00" timeLoss="72.84" rerouteNo="0" devices="tripinfo_L4-AV-14 emissions_L4-AV-14 ssm_L4-AV-14 toc_L4-AV-14 driverstateL4-AV-14" vType="L4-AV-4" speedFactor="0.90" vaporized="">
        <emissions CO_abs="12493.523593" CO2_abs="396407.110607" HC_abs="63.641310" PMx_abs="6.846910" NOx_abs="157.475202" fuel_abs="170.404094" electricity_abs="0"/>
    </tripinfo>
    <tripinfo id="L0-HDV-7" depart="207.20" departLane="bottom-approaching_0" departPos="5.10" departSpeed="0.00" departDelay="3.20" arrival="343.80" arrivalLane="top-exit_0" arrivalPos="486.40" arrivalSpeed="14.53" duration="136.60" routeLength="994.90" waitingTime="59.50" waitingCount="1" stopTime="0.00" timeLoss="68.21" rerouteNo="0" devices="tripinfo_L0-HDV-7 emissions_L0-HDV-7 ssm_L0-HDV-7" vType="L0-HDV-75" speedFactor="0.87" vaporized="">
        <emissions CO_abs="12342.468801" CO2_abs="358944.709268" HC_abs="64.511094" PMx_abs="7.238275" NOx_abs="151.451097" fuel_abs="154.299538" electricity_abs="0"/>
    </tripinfo>
    <tripinfo id="L4-AV-25" depart="270.00" departLane="top-approaching_0" departPos="5.10" departSpeed="0.00" departDelay="0.00" arrival="344.20" arrivalLane="bottom-exit_1" arrivalPos="486.40" arrivalSpeed="18.66" duration="74.20" routeLength="994.90" waitingTime="0.00" waitingCount="0" stopTime="0.00" timeLoss="20.82" rerouteNo="0" devices="tripinfo_L4-AV-25 emissions_L4-AV-25 ssm_L4-AV-25 toc_L4-AV-25 driverstateL4-AV-25" vType="L4-AV-85" speedFactor="1.12" vaporized="">
        <emissions CO_abs="3092.697095" CO2_abs="229388.034633" HC_abs="18.058836" PMx_abs="3.714238" NOx_abs="87.638569" fuel_abs="98.604392" electricity_abs="0"/>
    </tripinfo>
    <tripinfo id="L4-AV-22" depart="252.00" departLane="bottom-approaching_0" departPos="5.10" departSpeed="0.00" departDelay="0.00" arrival="345.40" arrivalLane="right-exit_0" arrivalPos="486.40" arrivalSpeed="18.17" duration="93.40" routeLength="979.43" waitingTime="0.10" waitingCount="1" stopTime="0.00" timeLoss="41.11" rerouteNo="0" devices="tripinfo_L4-AV-22 emissions_L4-AV-22 ssm_L4-AV-22 toc_L4-AV-22 driverstateL4-AV-22" vType="L4-AV-34" speedFactor="1.14" vaporized="">
        <emissions CO_abs="3264.702538" CO2_abs="215783.701253" HC_abs="19.308804" PMx_abs="3.404989" NOx_abs="83.696594" fuel_abs="92.756847" electricity_abs="0"/>
    </tripinfo>
    <tripinfo id="L0-HDV-12" depart="264.00" departLane="top-approaching_0" departPos="5.10" departSpeed="0.00" departDelay="0.00" arrival="348.60" arrivalLane="bottom-exit_0" arrivalPos="486.40" arrivalSpeed="14.55" duration="84.60" routeLength="994.90" waitingTime="4.40" waitingCount="1" stopTime="0.00" timeLoss="16.40" rerouteNo="0" devices="tripinfo_L0-HDV-12 emissions_L0-HDV-12 ssm_L0-HDV-12" vType="L0-HDV-55" speedFactor="0.88" vaporized="">
        <emissions CO_abs="3133.540626" CO2_abs="199350.056344" HC_abs="18.689933" PMx_abs="3.135696" NOx_abs="77.515810" fuel_abs="85.692826" electricity_abs="0"/>
    </tripinfo>
    <tripinfo id="L4-AV-21" depart="246.00" departLane="top-approaching_0" departPos="5.10" departSpeed="0.00" departDelay="0.00" arrival="354.10" arrivalLane="right-exit_0" arrivalPos="486.40" arrivalSpeed="16.60" duration="108.10" routeLength="992.21" waitingTime="17.20" waitingCount="3" stopTime="0.00" timeLoss="47.31" rerouteNo="0" devices="tripinfo_L4-AV-21 emissions_L4-AV-21 ssm_L4-AV-21 toc_L4-AV-21 driverstateL4-AV-21" vType="L4-AV-88" speedFactor="1.00" vaporized="">
        <emissions CO_abs="7032.566042" CO2_abs="319487.378938" HC_abs="37.621086" PMx_abs="4.973015" NOx_abs="122.699975" fuel_abs="137.336830" electricity_abs="0"/>
    </tripinfo>
    <tripinfo id="L4-AV-28" depart="288.00" departLane="bottom-approaching_0" departPos="5.10" departSpeed="0.00" departDelay="0.00" arrival="360.10" arrivalLane="right-exit_0" arrivalPos="486.40" arrivalSpeed="15.25" duration="72.10" routeLength="979.43" waitingTime="0.00" waitingCount="0" stopTime="0.00" timeLoss="6.85" rerouteNo="0" devices="tripinfo_L4-AV-28 emissions_L4-AV-28 ssm_L4-AV-28 toc_L4-AV-28 driverstateL4-AV-28" vType="L4-AV-72" speedFactor="0.91" vaporized="">
        <emissions CO_abs="1744.352136" CO2_abs="219234.429591" HC_abs="10.459659" PMx_abs="2.491335" NOx_abs="76.561188" fuel_abs="94.240185" electricity_abs="0"/>
    </tripinfo>
    <tripinfo id="L2-CV-23" depart="258.00" departLane="top-approaching_0" departPos="5.10" departSpeed="0.00" departDelay="0.00" arrival="362.80" arrivalLane="right-exit_0" arrivalPos="486.40" arrivalSpeed="16.83" duration="104.80" routeLength="992.21" waitingTime="10.80" waitingCount="2" stopTime="0.00" timeLoss="44.90" rerouteNo="0" devices="tripinfo_L2-CV-23 emissions_L2-CV-23 ssm_L2-CV-23 toc_L2-CV-23 driverstateL2-CV-23" vType="L2-CV-21" speedFactor="1.01" vaporized="">
        <emissions CO_abs="5521.983302" CO2_abs="298914.786101" HC_abs="29.949792" PMx_abs="4.502333" NOx_abs="112.897529" fuel_abs="128.492704" electricity_abs="0"/>
    </tripinfo>
    <tripinfo id="L4-AV-29" depart="294.00" departLane="top-approaching_0" departPos="5.10" departSpeed="0.00" departDelay="0.00" arrival="367.50" arrivalLane="right-exit_0" arrivalPos="486.40" arrivalSpeed="17.04" duration="73.50" routeLength="992.21" waitingTime="0.00" waitingCount="0" stopTime="0.00" timeLoss="14.28" rerouteNo="0" devices="tripinfo_L4-AV-29 emissions_L4-AV-29 ssm_L4-AV-29 toc_L4-AV-29 driverstateL4-AV-29" vType="L4-AV-15" speedFactor="1.02" vaporized="">
        <emissions CO_abs="2390.380692" CO2_abs="245363.495599" HC_abs="14.479641" PMx_abs="3.197948" NOx_abs="88.347529" fuel_abs="105.471911" electricity_abs="0"/>
    </tripinfo>
    <tripinfo id="L0-HDV-10" depart="240.00" departLane="left-long-approaching_0" departPos="5.10" departSpeed="0.00" departDelay="0.00" arrival="388.70" arrivalLane="right-exit_0" arrivalPos="486.40" arrivalSpeed="19.71" duration="148.70" routeLength="1395.23" waitingTime="63.80" waitingCount="1" stopTime="0.00" timeLoss="77.97" rerouteNo="0" devices="tripinfo_L0-HDV-10 emissions_L0-HDV-10 ssm_L0-HDV-10" vType="L0-HDV-Straight-42" speedFactor="1.18" vaporized="">
        <emissions CO_abs="15135.881393" CO2_abs="508136.665864" HC_abs="81.014648" PMx_abs="10.824963" NOx_abs="215.650538" fuel_abs="218.430071" electricity_abs="0"/>
    </tripinfo>