<?xml version="1.0" encoding="UTF-8"?>

<!-- generated on 04/08/21 06:17:09 by Eclipse SUMO sumo Version 1.8.0
<configuration xmlns:xsi="http://www.w3.org/2001/XMLSchema-instance" xsi:noNamespaceSchemaLocation="http://sumo.dlr.de/xsd/sumoConfiguration.xsd">

    <input>
        <net-file value="Collision\BaselinePenetration2\../CollisionIntersection.net.xml"/>
        <route-files value="Collision\BaselinePenetration2\../CrashedVehicleRoutes.rou.xml,Collision\BaselinePenetration2\Route-Files/L4-CV-Route.rou.xml,Collision\BaselinePenetration2\Route-Files/L4-AV-Route.rou.xml,Collision\BaselinePenetration2\Route-Files/L2-CV-Route.rou.xml,Collision\BaselinePenetration2\Route-Files/L2-AV-Route.rou.xml,Collision\BaselinePenetration2\Route-Files/L0-HDV-Route.rou.xml"/>
        <additional-files value="Collision\BaselinePenetration2\../Additional-Files/Collision-Detectors.add.xml,Collision\BaselinePenetration2\../Additional-Files/Collision-TMS-Rerouters.add.xml,Collision\BaselinePenetration2\PreparingVehicleModels/Vehicle-Models/L4-CV.add.xml,Collision\BaselinePenetration2\PreparingVehicleModels/Vehicle-Models/L4-CV-Left.add.xml,Collision\BaselinePenetration2\PreparingVehicleModels/Vehicle-Models/L4-CV-Right.add.xml,Collision\BaselinePenetration2\PreparingVehicleModels/Vehicle-Models/L4-AV.add.xml,Collision\BaselinePenetration2\PreparingVehicleModels/Vehicle-Models/L4-AV-Left.add.xml,Collision\BaselinePenetration2\PreparingVehicleModels/Vehicle-Models/L4-AV-Right.add.xml,Collision\BaselinePenetration2\PreparingVehicleModels/Vehicle-Models/L2-CV.add.xml,Collision\BaselinePenetration2\PreparingVehicleModels/Vehicle-Models/L2-CV-Left.add.xml,Collision\BaselinePenetration2\PreparingVehicleModels/Vehicle-Models/L2-CV-Right.add.xml,Collision\BaselinePenetration2\PreparingVehicleModels/Vehicle-Models/L2-AV.add.xml,Collision\BaselinePenetration2\PreparingVehicleModels/Vehicle-Models/L2-AV-Left.add.xml,Collision\BaselinePenetration2\PreparingVehicleModels/Vehicle-Models/L2-AV-Right.add.xml,Collision\BaselinePenetration2\PreparingVehicleModels/Vehicle-Models/L0-HDV.add.xml,Collision\BaselinePenetration2\PreparingVehicleModels/Vehicle-Models/L0-HDV-Left.add.xml,Collision\BaselinePenetration2\PreparingVehicleModels/Vehicle-Models/L0-HDV-Straight.add.xml,Collision\BaselinePenetration2\../Additional-Files/Collision-Traffic-lights.add.xml,Collision\BaselinePenetration2\../Additional-Files/Collision-Traffic-Signs.add.xml"/>
    </input>

    <output>
        <tripinfo-output value="Collision\BaselinePenetration2\Output-Files\TripInfo.xml"/>
    </output>

    <time>
        <begin value="0"/>
        <step-length value="0.1"/>
    </time>

    <processing>
        <ignore-route-errors value="true"/>
        <waiting-time-memory value="300"/>
        <default.action-step-length value="0.1"/>
    </processing>

    <report>
        <no-warnings value="true"/>
    </report>

    <emissions>
        <device.emissions.probability value="1"/>
    </emissions>

    <traci_server>
        <remote-port value="61409"/>
    </traci_server>

    <gui_only>
        <quit-on-end value="true"/>
        <start value="true"/>
        <tracker-interval value="0.1"/>
    </gui_only>

</configuration>
-->

<tripinfos xmlns:xsi="http://www.w3.org/2001/XMLSchema-instance" xsi:noNamespaceSchemaLocation="http://sumo.dlr.de/xsd/tripinfo_file.xsd">
    <tripinfo id="L0-HDV-6" depart="136.20" departLane="right-approaching_0" departPos="5.10" departSpeed="0.00" departDelay="0.06" arrival="174.90" arrivalLane="left-long-approaching_2" arrivalPos="410.00" arrivalSpeed="20.08" duration="38.70" routeLength="995.12" waitingTime="0.20" waitingCount="1" stopTime="0.00" timeLoss="9.52" rerouteNo="0" devices="tripinfo_L0-HDV-6 emissions_L0-HDV-6 ssm_L0-HDV-6" vType="L0-HDV-1@L0-HDV-6" speedFactor="1.20" vaporized="">
        <emissions CO_abs="2646.686037" CO2_abs="165102.431243" HC_abs="15.851611" PMx_abs="3.428480" NOx_abs="69.524269" fuel_abs="70.969880" electricity_abs="0"/>
    </tripinfo>
    <tripinfo id="L2-CV-1" depart="125.00" departLane="left-long-approaching_0" departPos="5.10" departSpeed="0.00" departDelay="0.00" arrival="187.20" arrivalLane="right-exit_1" arrivalPos="486.40" arrivalSpeed="18.66" duration="62.20" routeLength="995.23" waitingTime="0.00" waitingCount="0" stopTime="0.00" timeLoss="8.76" rerouteNo="0" devices="tripinfo_L2-CV-1 emissions_L2-CV-1 ssm_L2-CV-1 toc_L2-CV-1 driverstateL2-CV-1" vType="L2-CV-85" speedFactor="1.12" vaporized="">
        <emissions CO_abs="1673.043024" CO2_abs="217542.988146" HC_abs="10.041434" PMx_abs="2.761826" NOx_abs="74.667653" fuel_abs="93.512906" electricity_abs="0"/>
    </tripinfo>
    <tripinfo id="L2-CV-2" depart="130.00" departLane="right-approaching_0" departPos="5.10" departSpeed="0.00" departDelay="0.00" arrival="198.00" arrivalLane="bottom-exit_0" arrivalPos="486.40" arrivalSpeed="16.45" duration="68.00" routeLength="992.21" waitingTime="0.00" waitingCount="0" stopTime="0.00" timeLoss="6.73" rerouteNo="0" devices="tripinfo_L2-CV-2 emissions_L2-CV-2 ssm_L2-CV-2 toc_L2-CV-2 driverstateL2-CV-2" vType="L2-CV-48" speedFactor="0.99" vaporized="">
        <emissions CO_abs="1925.626895" CO2_abs="230282.442434" HC_abs="11.170735" PMx_abs="2.927478" NOx_abs="81.646670" fuel_abs="98.988909" electricity_abs="0"/>
    </tripinfo>
    <tripinfo id="L0-HDV-7" depart="138.90" departLane="right-approaching_0" departPos="5.10" departSpeed="0.00" departDelay="0.07" arrival="205.70" arrivalLane="bottom-exit_0" arrivalPos="486.40" arrivalSpeed="17.84" duration="66.80" routeLength="992.21" waitingTime="0.00" waitingCount="0" stopTime="0.00" timeLoss="10.35" rerouteNo="0" devices="tripinfo_L0-HDV-7 emissions_L0-HDV-7 ssm_L0-HDV-7" vType="L0-HDV-81" speedFactor="1.07" vaporized="">
        <emissions CO_abs="2220.612032" CO2_abs="197290.679397" HC_abs="14.366852" PMx_abs="3.105032" NOx_abs="75.141013" fuel_abs="84.806956" electricity_abs="0"/>
    </tripinfo>
    <tripinfo id="L2-AV-5" depart="149.30" departLane="right-approaching_0" departPos="5.10" departSpeed="0.00" departDelay="4.30" arrival="214.40" arrivalLane="bottom-exit_0" arrivalPos="486.40" arrivalSpeed="17.21" duration="65.10" routeLength="992.21" waitingTime="0.00" waitingCount="0" stopTime="0.00" timeLoss="6.48" rerouteNo="0" devices="tripinfo_L2-AV-5 emissions_L2-AV-5 ssm_L2-AV-5 toc_L2-AV-5 driverstateL2-AV-5" vType="L2-AV-38" speedFactor="1.03" vaporized="">
        <emissions CO_abs="1772.150363" CO2_abs="206000.481796" HC_abs="10.952488" PMx_abs="2.824973" NOx_abs="74.558543" fuel_abs="88.550939" electricity_abs="0"/>
    </tripinfo>
    <tripinfo id="L2-CV-7" depart="155.00" departLane="right-approaching_0" departPos="5.10" departSpeed="0.00" departDelay="0.00" arrival="218.50" arrivalLane="bottom-exit_0" arrivalPos="486.40" arrivalSpeed="17.60" duration="63.50" routeLength="992.21" waitingTime="0.00" waitingCount="0" stopTime="0.00" timeLoss="6.17" rerouteNo="0" devices="tripinfo_L2-CV-7 emissions_L2-CV-7 ssm_L2-CV-7 toc_L2-CV-7 driverstateL2-CV-7" vType="L2-CV-19" speedFactor="1.06" vaporized="">
        <emissions CO_abs="1590.331099" CO2_abs="226519.625355" HC_abs="10.393911" PMx_abs="2.940492" NOx_abs="79.810535" fuel_abs="97.371318" electricity_abs="0"/>
    </tripinfo>
    <tripinfo id="L2-CV-0" depart="123.20" departLane="bottom-approaching_0" departPos="5.10" departSpeed="0.00" departDelay="3.20" arrival="238.90" arrivalLane="right-exit_0" arrivalPos="486.40" arrivalSpeed="20.01" duration="115.70" routeLength="979.43" waitingTime="43.70" waitingCount="1" stopTime="0.00" timeLoss="65.88" rerouteNo="0" devices="tripinfo_L2-CV-0 emissions_L2-CV-0 ssm_L2-CV-0 toc_L2-CV-0 driverstateL2-CV-0" vType="L2-CV-0" speedFactor="1.20" vaporized="">
        <emissions CO_abs="10863.324608" CO2_abs="396276.571821" HC_abs="57.599562" PMx_abs="7.444708" NOx_abs="159.362690" fuel_abs="170.346098" electricity_abs="0"/>
    </tripinfo>
    <tripinfo id="L4-AV-3" depart="156.90" departLane="top-approaching_0" departPos="5.10" departSpeed="0.00" departDelay="3.90" arrival="241.60" arrivalLane="bottom-exit_1" arrivalPos="486.40" arrivalSpeed="19.66" duration="84.70" routeLength="994.90" waitingTime="0.00" waitingCount="0" stopTime="0.00" timeLoss="34.00" rerouteNo="0" devices="tripinfo_L4-AV-3 emissions_L4-AV-3 ssm_L4-AV-3 toc_L4-AV-3 driverstateL4-AV-3" vType="L4-AV-42" speedFactor="1.18" vaporized="">
        <emissions CO_abs="2860.920136" CO2_abs="257567.532632" HC_abs="17.386971" PMx_abs="3.814944" NOx_abs="95.099146" fuel_abs="110.717699" electricity_abs="0"/>
    </tripinfo>
    <tripinfo id="L0-HDV-1" depart="127.10" departLane="bottom-approaching_0" departPos="5.10" departSpeed="0.00" departDelay="4.41" arrival="241.70" arrivalLane="top-exit_1" arrivalPos="486.40" arrivalSpeed="17.29" duration="114.60" routeLength="994.90" waitingTime="39.60" waitingCount="1" stopTime="0.00" timeLoss="57.19" rerouteNo="0" devices="tripinfo_L0-HDV-1 emissions_L0-HDV-1 ssm_L0-HDV-1" vType="L0-HDV-32" speedFactor="1.04" vaporized="">
        <emissions CO_abs="10150.832580" CO2_abs="350807.789352" HC_abs="54.405317" PMx_abs="7.021048" NOx_abs="146.938376" fuel_abs="150.800243" electricity_abs="0"/>
    </tripinfo>
    <tripinfo id="L0-HDV-17" depart="165.80" departLane="bottom-approaching_0" departPos="5.10" departSpeed="0.00" departDelay="0.07" arrival="243.30" arrivalLane="top-exit_1" arrivalPos="486.40" arrivalSpeed="22.59" duration="77.50" routeLength="994.90" waitingTime="12.50" waitingCount="1" stopTime="0.00" timeLoss="33.38" rerouteNo="0" devices="tripinfo_L0-HDV-17 emissions_L0-HDV-17 ssm_L0-HDV-17" vType="L0-HDV-1" speedFactor="1.36" vaporized="">
        <emissions CO_abs="6154.575142" CO2_abs="277267.925249" HC_abs="34.675377" PMx_abs="5.847330" NOx_abs="117.568096" fuel_abs="119.185985" electricity_abs="0"/>
    </tripinfo>
    <tripinfo id="L0-HDV-21" depart="178.20" departLane="top-approaching_0" departPos="5.10" departSpeed="0.00" departDelay="1.71" arrival="243.80" arrivalLane="bottom-exit_1" arrivalPos="486.40" arrivalSpeed="19.77" duration="65.60" routeLength="994.90" waitingTime="0.00" waitingCount="0" stopTime="0.00" timeLoss="15.70" rerouteNo="0" devices="tripinfo_L0-HDV-21 emissions_L0-HDV-21 ssm_L0-HDV-21" vType="L0-HDV-22" speedFactor="1.20" vaporized="">
        <emissions CO_abs="4023.942144" CO2_abs="281014.925939" HC_abs="25.053671" PMx_abs="5.466908" NOx_abs="115.395479" fuel_abs="120.795555" electricity_abs="0"/>
    </tripinfo>
    <tripinfo id="L0-HDV-3" depart="128.10" departLane="top-approaching_0" departPos="5.10" departSpeed="0.00" departDelay="0.03" arrival="243.90" arrivalLane="bottom-exit_0" arrivalPos="486.40" arrivalSpeed="15.92" duration="115.80" routeLength="994.90" waitingTime="35.90" waitingCount="1" stopTime="0.00" timeLoss="53.26" rerouteNo="0" devices="tripinfo_L0-HDV-3 emissions_L0-HDV-3 ssm_L0-HDV-3" vType="L0-HDV-81" speedFactor="0.96" vaporized="">
        <emissions CO_abs="8927.829717" CO2_abs="300856.905699" HC_abs="47.339218" PMx_abs="5.586812" NOx_abs="123.127384" fuel_abs="129.328887" electricity_abs="0"/>
    </tripinfo>
    <tripinfo id="L4-AV-1" depart="131.00" departLane="bottom-approaching_0" departPos="5.10" departSpeed="0.00" departDelay="0.00" arrival="244.00" arrivalLane="right-exit_0" arrivalPos="486.40" arrivalSpeed="16.58" duration="113.00" routeLength="979.43" waitingTime="0.00" waitingCount="0" stopTime="0.00" timeLoss="52.94" rerouteNo="0" devices="tripinfo_L4-AV-1 emissions_L4-AV-1 ssm_L4-AV-1 toc_L4-AV-1 driverstateL4-AV-1" vType="L4-AV-41" speedFactor="0.99" vaporized="">
        <emissions CO_abs="2965.758625" CO2_abs="241783.608854" HC_abs="16.769758" PMx_abs="3.310189" NOx_abs="88.452546" fuel_abs="103.933247" electricity_abs="0"/>
    </tripinfo>
    <tripinfo id="L4-AV-0" depart="120.00" departLane="bottom-approaching_0" departPos="5.10" departSpeed="0.00" departDelay="0.00" arrival="245.30" arrivalLane="top-exit_0" arrivalPos="486.40" arrivalSpeed="13.99" duration="125.30" routeLength="994.90" waitingTime="42.50" waitingCount="1" stopTime="0.00" timeLoss="54.11" rerouteNo="0" devices="tripinfo_L4-AV-0 emissions_L4-AV-0 ssm_L4-AV-0 toc_L4-AV-0 driverstateL4-AV-0" vType="L4-AV-74" speedFactor="0.84" vaporized="">
        <emissions CO_abs="9122.217255" CO2_abs="342692.678407" HC_abs="47.648218" PMx_abs="5.316669" NOx_abs="132.294630" fuel_abs="147.313337" electricity_abs="0"/>
    </tripinfo>
    <tripinfo id="L2-CV-3" depart="135.00" departLane="bottom-approaching_0" departPos="5.10" departSpeed="0.00" departDelay="0.00" arrival="247.60" arrivalLane="top-exit_0" arrivalPos="486.40" arrivalSpeed="14.71" duration="112.60" routeLength="994.90" waitingTime="26.10" waitingCount="1" stopTime="0.00" timeLoss="45.07" rerouteNo="0" devices="tripinfo_L2-CV-3 emissions_L2-CV-3 ssm_L2-CV-3 toc_L2-CV-3 driverstateL2-CV-3" vType="L2-CV-20" speedFactor="0.88" vaporized="">
        <emissions CO_abs="5357.740141" CO2_abs="288293.055584" HC_abs="29.115783" PMx_abs="3.973973" NOx_abs="107.107703" fuel_abs="123.927368" electricity_abs="0"/>
    </tripinfo>
    <tripinfo id="L0-HDV-18" depart="168.50" departLane="top-approaching_0" departPos="5.10" departSpeed="0.00" departDelay="0.08" arrival="250.20" arrivalLane="bottom-exit_0" arrivalPos="486.40" arrivalSpeed="14.49" duration="81.70" routeLength="994.90" waitingTime="0.00" waitingCount="0" stopTime="0.00" timeLoss="13.30" rerouteNo="0" devices="tripinfo_L0-HDV-18 emissions_L0-HDV-18 ssm_L0-HDV-18" vType="L0-HDV-76" speedFactor="0.87" vaporized="">
        <emissions CO_abs="2808.036579" CO2_abs="202984.892043" HC_abs="17.431097" PMx_abs="3.311800" NOx_abs="80.102365" fuel_abs="87.254770" electricity_abs="0"/>
    </tripinfo>
    <tripinfo id="L0-HDV-25" depart="187.30" departLane="bottom-approaching_0" departPos="5.10" departSpeed="0.00" departDelay="0.05" arrival="251.90" arrivalLane="right-exit_0" arrivalPos="486.40" arrivalSpeed="20.16" duration="64.60" routeLength="979.43" waitingTime="0.00" waitingCount="0" stopTime="0.00" timeLoss="15.56" rerouteNo="0" devices="tripinfo_L0-HDV-25 emissions_L0-HDV-25 ssm_L0-HDV-25" vType="L0-HDV-23" speedFactor="1.22" vaporized="">
        <emissions CO_abs="3283.392213" CO2_abs="253725.287672" HC_abs="20.945395" PMx_abs="4.506485" NOx_abs="100.454727" fuel_abs="109.065431" electricity_abs="0"/>
    </tripinfo>
    <tripinfo id="L4-AV-6" depart="186.00" departLane="bottom-approaching_0" departPos="5.10" departSpeed="0.00" departDelay="0.00" arrival="254.90" arrivalLane="top-exit_0" arrivalPos="486.40" arrivalSpeed="15.96" duration="68.90" routeLength="994.90" waitingTime="0.00" waitingCount="0" stopTime="0.00" timeLoss="6.48" rerouteNo="0" devices="tripinfo_L4-AV-6 emissions_L4-AV-6 ssm_L4-AV-6 toc_L4-AV-6 driverstateL4-AV-6" vType="L4-AV-10" speedFactor="0.96" vaporized="">
        <emissions CO_abs="1328.473696" CO2_abs="205362.363525" HC_abs="7.679152" PMx_abs="2.065352" NOx_abs="68.488635" fuel_abs="88.277304" electricity_abs="0"/>
    </tripinfo>
    <tripinfo id="L2-AV-2" depart="131.90" departLane="top-approaching_0" departPos="5.10" departSpeed="0.00" departDelay="1.90" arrival="260.30" arrivalLane="right-exit_0" arrivalPos="486.40" arrivalSpeed="16.59" duration="128.40" routeLength="992.21" waitingTime="48.20" waitingCount="3" stopTime="0.00" timeLoss="67.64" rerouteNo="0" devices="tripinfo_L2-AV-2 emissions_L2-AV-2 ssm_L2-AV-2 toc_L2-AV-2 driverstateL2-AV-2" vType="L2-AV-56" speedFactor="1.00" vaporized="">
        <emissions CO_abs="11132.462441" CO2_abs="381863.674103" HC_abs="56.999945" PMx_abs="6.694645" NOx_abs="151.488892" fuel_abs="164.151395" electricity_abs="0"/>
    </tripinfo>
    <tripinfo id="L2-AV-8" depart="160.00" departLane="top-approaching_0" departPos="5.10" departSpeed="0.00" departDelay="0.00" arrival="262.60" arrivalLane="right-exit_0" arrivalPos="486.40" arrivalSpeed="16.81" duration="102.60" routeLength="992.21" waitingTime="0.00" waitingCount="0" stopTime="0.00" timeLoss="42.61" rerouteNo="0" devices="tripinfo_L2-AV-8 emissions_L2-AV-8 ssm_L2-AV-8 toc_L2-AV-8 driverstateL2-AV-8" vType="L2-AV-97" speedFactor="1.01" vaporized="">
        <emissions CO_abs="3446.491360" CO2_abs="216210.260330" HC_abs="19.309304" PMx_abs="3.349488" NOx_abs="82.918996" fuel_abs="92.940348" electricity_abs="0"/>
    </tripinfo>
    <tripinfo id="L2-CV-11" depart="175.00" departLane="top-approaching_0" departPos="5.10" departSpeed="0.00" departDelay="0.00" arrival="264.50" arrivalLane="right-exit_0" arrivalPos="486.40" arrivalSpeed="16.79" duration="89.50" routeLength="992.21" waitingTime="0.00" waitingCount="0" stopTime="0.00" timeLoss="29.45" rerouteNo="0" devices="tripinfo_L2-CV-11 emissions_L2-CV-11 ssm_L2-CV-11 toc_L2-CV-11 driverstateL2-CV-11" vType="L2-CV-8" speedFactor="1.01" vaporized="">
        <emissions CO_abs="3013.666340" CO2_abs="253432.119502" HC_abs="17.375227" PMx_abs="3.500482" NOx_abs="92.712609" fuel_abs="108.940418" electricity_abs="0"/>
    </tripinfo>
    <tripinfo id="L0-HDV-11" depart="149.60" departLane="left-long-approaching_0" departPos="5.10" departSpeed="0.00" departDelay="0.01" arrival="285.10" arrivalLane="right-exit_0" arrivalPos="486.40" arrivalSpeed="17.82" duration="135.50" routeLength="995.23" waitingTime="62.30" waitingCount="1" stopTime="0.00" timeLoss="79.63" rerouteNo="0" devices="tripinfo_L0-HDV-11 emissions_L0-HDV-11 ssm_L0-HDV-11" vType="L0-HDV-Straight-66" speedFactor="1.07" vaporized="">
        <emissions CO_abs="13308.545931" CO2_abs="379759.927410" HC_abs="69.170269" PMx_abs="7.736126" NOx_abs="159.714366" fuel_abs="163.247529" electricity_abs="0"/>
    </tripinfo>
    <tripinfo id="L0-HDV-9" depart="145.70" departLane="right-approaching_0" departPos="5.10" departSpeed="0.00" departDelay="1.49" arrival="285.50" arrivalLane="top-exit_0" arrivalPos="486.40" arrivalSpeed="17.22" duration="139.80" routeLength="979.43" waitingTime="64.20" waitingCount="1" stopTime="0.00" timeLoss="82.16" rerouteNo="0" devices="tripinfo_L0-HDV-9 emissions_L0-HDV-9 ssm_L0-HDV-9" vType="L0-HDV-37" speedFactor="1.04" vaporized="">
        <emissions CO_abs="13724.599733" CO2_abs="386819.784807" HC_abs="71.357851" PMx_abs="7.875184" NOx_abs="163.046175" fuel_abs="166.282491" electricity_abs="0"/>
    </tripinfo>
    <tripinfo id="L0-HDV-10" depart="149.40" departLane="right-approaching_0" departPos="5.10" departSpeed="0.00" departDelay="2.50" arrival="286.70" arrivalLane="top-exit_0" arrivalPos="486.40" arrivalSpeed="17.88" duration="137.30" routeLength="979.43" waitingTime="62.80" waitingCount="1" stopTime="0.00" timeLoss="81.76" rerouteNo="0" devices="tripinfo_L0-HDV-10 emissions_L0-HDV-10 ssm_L0-HDV-10" vType="L0-HDV-98" speedFactor="1.07" vaporized="">
        <emissions CO_abs="13516.516326" CO2_abs="379926.565645" HC_abs="70.080230" PMx_abs="7.712090" NOx_abs="159.803867" fuel_abs="163.319352" electricity_abs="0"/>
    </tripinfo>
    <tripinfo id="L2-CV-4" depart="140.00" departLane="left-long-approaching_0" departPos="5.10" departSpeed="0.00" departDelay="0.00" arrival="287.10" arrivalLane="bottom-exit_0" arrivalPos="486.40" arrivalSpeed="15.25" duration="147.10" routeLength="979.53" waitingTime="69.60" waitingCount="1" stopTime="0.00" timeLoss="81.73" rerouteNo="0" devices="tripinfo_L2-CV-4 emissions_L2-CV-4 ssm_L2-CV-4 toc_L2-CV-4 driverstateL2-CV-4" vType="L2-CV-Right-72" speedFactor="0.91" vaporized="">
        <emissions CO_abs="13850.440854" CO2_abs="417565.970063" HC_abs="70.249944" PMx_abs="7.427613" NOx_abs="167.423561" fuel_abs="179.499939" electricity_abs="0"/>
    </tripinfo>
    <tripinfo id="L2-AV-7" depart="157.80" departLane="right-approaching_0" departPos="5.10" departSpeed="0.00" departDelay="2.80" arrival="287.30" arrivalLane="top-exit_1" arrivalPos="486.40" arrivalSpeed="18.64" duration="129.50" routeLength="979.43" waitingTime="2.90" waitingCount="1" stopTime="0.00" timeLoss="76.04" rerouteNo="0" devices="tripinfo_L2-AV-7 emissions_L2-AV-7 ssm_L2-AV-7 toc_L2-AV-7 driverstateL2-AV-7" vType="L2-AV-51" speedFactor="1.12" vaporized="">
        <emissions CO_abs="3231.162555" CO2_abs="238770.209989" HC_abs="18.813281" PMx_abs="3.839905" NOx_abs="90.886835" fuel_abs="102.637461" electricity_abs="0"/>
    </tripinfo>
    <tripinfo id="L4-CV-4" depart="164.80" departLane="left-long-approaching_0" departPos="5.10" departSpeed="0.00" departDelay="0.80" arrival="289.50" arrivalLane="right-exit_0" arrivalPos="486.40" arrivalSpeed="16.52" duration="124.70" routeLength="995.23" waitingTime="40.90" waitingCount="1" stopTime="0.00" timeLoss="64.62" rerouteNo="0" devices="tripinfo_L4-CV-4 emissions_L4-CV-4 ssm_L4-CV-4 toc_L4-CV-4 driverstateL4-CV-4" vType="L4-CV-12" speedFactor="0.99" vaporized="">
        <emissions CO_abs="7873.887173" CO2_abs="335311.512483" HC_abs="41.605741" PMx_abs="5.366395" NOx_abs="129.193146" fuel_abs="144.139318" electricity_abs="0"/>
    </tripinfo>
    <tripinfo id="L0-HDV-23" depart="183.50" departLane="right-approaching_0" departPos="5.10" departSpeed="0.00" departDelay="1.63" arrival="290.30" arrivalLane="top-exit_1" arrivalPos="486.40" arrivalSpeed="19.75" duration="106.80" routeLength="979.43" waitingTime="1.70" waitingCount="1" stopTime="0.00" timeLoss="56.80" rerouteNo="0" devices="tripinfo_L0-HDV-23 emissions_L0-HDV-23 ssm_L0-HDV-23" vType="L0-HDV-21" speedFactor="1.19" vaporized="">
        <emissions CO_abs="7058.015401" CO2_abs="321311.421842" HC_abs="39.780752" PMx_abs="6.564030" NOx_abs="135.107525" fuel_abs="138.118690" electricity_abs="0"/>
    </tripinfo>
    <tripinfo id="L2-CV-8" depart="160.70" departLane="right-approaching_0" departPos="5.10" departSpeed="0.00" departDelay="0.70" arrival="292.60" arrivalLane="top-exit_0" arrivalPos="486.40" arrivalSpeed="16.42" duration="131.90" routeLength="979.43" waitingTime="1.80" waitingCount="1" stopTime="0.00" timeLoss="71.15" rerouteNo="0" devices="tripinfo_L2-CV-8 emissions_L2-CV-8 ssm_L2-CV-8 toc_L2-CV-8 driverstateL2-CV-8" vType="L2-CV-85" speedFactor="0.98" vaporized="">
        <emissions CO_abs="3365.285025" CO2_abs="257222.017796" HC_abs="19.425983" PMx_abs="3.491169" NOx_abs="94.329964" fuel_abs="110.569921" electricity_abs="0"/>
    </tripinfo>
    <tripinfo id="L2-CV-12" depart="180.00" departLane="left-long-approaching_0" departPos="5.10" departSpeed="0.00" departDelay="0.00" arrival="292.80" arrivalLane="bottom-exit_1" arrivalPos="486.40" arrivalSpeed="17.24" duration="112.80" routeLength="979.53" waitingTime="33.40" waitingCount="1" stopTime="0.00" timeLoss="55.21" rerouteNo="0" devices="tripinfo_L2-CV-12 emissions_L2-CV-12 ssm_L2-CV-12 toc_L2-CV-12 driverstateL2-CV-12" vType="L2-CV-Right-74" speedFactor="1.03" vaporized="">
        <emissions CO_abs="6490.890030" CO2_abs="311587.502737" HC_abs="34.800722" PMx_abs="4.977337" NOx_abs="119.346340" fuel_abs="133.940502" electricity_abs="0"/>
    </tripinfo>
    <tripinfo id="L0-HDV-14" depart="157.70" departLane="left-long-approaching_0" departPos="5.10" departSpeed="0.00" departDelay="0.04" arrival="292.80" arrivalLane="bottom-exit_0" arrivalPos="486.40" arrivalSpeed="13.27" duration="135.10" routeLength="979.53" waitingTime="51.10" waitingCount="1" stopTime="0.00" timeLoss="60.62" rerouteNo="0" devices="tripinfo_L0-HDV-14 emissions_L0-HDV-14 ssm_L0-HDV-14" vType="L0-HDV-75" speedFactor="0.80" vaporized="">
        <emissions CO_abs="11151.754111" CO2_abs="331905.827931" HC_abs="58.510229" PMx_abs="6.508616" NOx_abs="139.269018" fuel_abs="142.676366" electricity_abs="0"/>
    </tripinfo>
    <tripinfo id="L2-CV-14" depart="190.00" departLane="right-approaching_0" departPos="5.10" departSpeed="0.00" departDelay="0.00" arrival="294.20" arrivalLane="top-exit_0" arrivalPos="486.40" arrivalSpeed="18.97" duration="104.20" routeLength="979.43" waitingTime="1.20" waitingCount="2" stopTime="0.00" timeLoss="52.13" rerouteNo="0" devices="tripinfo_L2-CV-14 emissions_L2-CV-14 ssm_L2-CV-14 toc_L2-CV-14 driverstateL2-CV-14" vType="L2-CV-79" speedFactor="1.15" vaporized="">
        <emissions CO_abs="4323.828914" CO2_abs="287419.666039" HC_abs="25.707536" PMx_abs="4.613732" NOx_abs="110.111095" fuel_abs="123.550370" electricity_abs="0"/>
    </tripinfo>
    <tripinfo id="L0-HDV-15" depart="160.40" departLane="left-long-approaching_0" departPos="5.10" departSpeed="0.00" departDelay="0.05" arrival="294.80" arrivalLane="bottom-exit_1" arrivalPos="486.40" arrivalSpeed="15.45" duration="134.40" routeLength="979.53" waitingTime="49.60" waitingCount="2" stopTime="0.00" timeLoss="78.89" rerouteNo="0" devices="tripinfo_L0-HDV-15 emissions_L0-HDV-15 ssm_L0-HDV-15" vType="L0-HDV-10" speedFactor="1.08" vaporized="">
        <emissions CO_abs="11986.127950" CO2_abs="352147.813622" HC_abs="62.696840" PMx_abs="6.945263" NOx_abs="147.758505" fuel_abs="151.377870" electricity_abs="0"/>
    </tripinfo>
    <tripinfo id="L2-AV-16" depart="200.90" departLane="right-approaching_0" departPos="5.10" departSpeed="0.00" departDelay="0.90" arrival="295.60" arrivalLane="top-exit_1" arrivalPos="486.40" arrivalSpeed="20.44" duration="94.70" routeLength="979.43" waitingTime="0.00" waitingCount="0" stopTime="0.00" timeLoss="45.91" rerouteNo="0" devices="tripinfo_L2-AV-16 emissions_L2-AV-16 ssm_L2-AV-16 toc_L2-AV-16 driverstateL2-AV-16" vType="L2-AV-99" speedFactor="1.23" vaporized="">
        <emissions CO_abs="5115.816559" CO2_abs="271372.102192" HC_abs="28.958585" PMx_abs="4.863261" NOx_abs="107.317075" fuel_abs="116.652241" electricity_abs="0"/>
    </tripinfo>
    <tripinfo id="L2-AV-15" depart="195.20" departLane="left-long-approaching_0" departPos="5.10" departSpeed="0.00" departDelay="0.20" arrival="296.60" arrivalLane="bottom-exit_0" arrivalPos="486.40" arrivalSpeed="17.29" duration="101.40" routeLength="979.53" waitingTime="0.00" waitingCount="0" stopTime="0.00" timeLoss="43.74" rerouteNo="0" devices="tripinfo_L2-AV-15 emissions_L2-AV-15 ssm_L2-AV-15 toc_L2-AV-15 driverstateL2-AV-15" vType="L2-AV-Right-23" speedFactor="1.04" vaporized="">
        <emissions CO_abs="3406.941453" CO2_abs="228508.503738" HC_abs="19.841782" PMx_abs="3.602102" NOx_abs="88.147966" fuel_abs="98.226671" electricity_abs="0"/>
    </tripinfo>
    <tripinfo id="L4-CV-10" depart="230.00" departLane="left-long-approaching_0" departPos="5.10" departSpeed="0.00" departDelay="0.00" arrival="297.80" arrivalLane="right-exit_0" arrivalPos="486.40" arrivalSpeed="16.97" duration="67.80" routeLength="995.23" waitingTime="0.10" waitingCount="1" stopTime="0.00" timeLoss="9.06" rerouteNo="0" devices="tripinfo_L4-CV-10 emissions_L4-CV-10 ssm_L4-CV-10 toc_L4-CV-10 driverstateL4-CV-10" vType="L4-CV-59" speedFactor="1.02" vaporized="">
        <emissions CO_abs="1567.356753" CO2_abs="212071.265978" HC_abs="9.227019" PMx_abs="2.350366" NOx_abs="71.738385" fuel_abs="91.161137" electricity_abs="0"/>
    </tripinfo>
    <tripinfo id="L2-CV-15" depart="195.00" departLane="right-approaching_0" departPos="5.10" departSpeed="0.00" departDelay="0.00" arrival="298.80" arrivalLane="top-exit_0" arrivalPos="486.40" arrivalSpeed="16.27" duration="103.80" routeLength="979.43" waitingTime="7.60" waitingCount="76" stopTime="0.00" timeLoss="42.58" rerouteNo="0" devices="tripinfo_L2-CV-15 emissions_L2-CV-15 ssm_L2-CV-15 toc_L2-CV-15 driverstateL2-CV-15" vType="L2-CV-98" speedFactor="0.98" vaporized="">
        <emissions CO_abs="5764.590876" CO2_abs="300945.883138" HC_abs="30.831169" PMx_abs="4.511513" NOx_abs="113.872806" fuel_abs="129.365930" electricity_abs="0"/>
    </tripinfo>
    <tripinfo id="L0-HDV-31" depart="207.30" departLane="right-approaching_0" departPos="5.10" departSpeed="0.00" departDelay="3.91" arrival="301.90" arrivalLane="top-exit_0" arrivalPos="486.40" arrivalSpeed="16.57" duration="94.60" routeLength="979.43" waitingTime="0.00" waitingCount="0" stopTime="0.00" timeLoss="34.64" rerouteNo="0" devices="tripinfo_L0-HDV-31 emissions_L0-HDV-31 ssm_L0-HDV-31" vType="L0-HDV-33" speedFactor="1.00" vaporized="">
        <emissions CO_abs="4453.019920" CO2_abs="235133.236508" HC_abs="25.664358" PMx_abs="4.272701" NOx_abs="95.362639" fuel_abs="101.074385" electricity_abs="0"/>
    </tripinfo>
    <tripinfo id="L2-AV-19" depart="215.00" departLane="right-approaching_0" departPos="5.10" departSpeed="0.00" departDelay="0.00" arrival="305.40" arrivalLane="top-exit_0" arrivalPos="486.40" arrivalSpeed="16.92" duration="90.40" routeLength="979.43" waitingTime="0.00" waitingCount="0" stopTime="0.00" timeLoss="31.59" rerouteNo="0" devices="tripinfo_L2-AV-19 emissions_L2-AV-19 ssm_L2-AV-19 toc_L2-AV-19 driverstateL2-AV-19" vType="L2-AV-32" speedFactor="1.02" vaporized="">
        <emissions CO_abs="3145.092462" CO2_abs="249164.020483" HC_abs="18.147527" PMx_abs="3.497618" NOx_abs="92.159506" fuel_abs="107.105780" electricity_abs="0"/>
    </tripinfo>
    <tripinfo id="L4-AV-10" depart="234.00" departLane="left-long-approaching_0" departPos="5.10" departSpeed="0.00" departDelay="4.00" arrival="307.70" arrivalLane="bottom-exit_0" arrivalPos="486.40" arrivalSpeed="15.01" duration="73.70" routeLength="979.53" waitingTime="0.00" waitingCount="0" stopTime="0.00" timeLoss="7.44" rerouteNo="0" devices="tripinfo_L4-AV-10 emissions_L4-AV-10 ssm_L4-AV-10 toc_L4-AV-10 driverstateL4-AV-10" vType="L4-AV-Right-4" speedFactor="0.90" vaporized="">
        <emissions CO_abs="1839.914270" CO2_abs="222862.706462" HC_abs="11.143452" PMx_abs="2.501895" NOx_abs="77.916927" fuel_abs="95.799952" electricity_abs="0"/>
    </tripinfo>
    <tripinfo id="L2-CV-10" depart="170.00" departLane="right-approaching_0" departPos="5.10" departSpeed="0.00" departDelay="0.00" arrival="312.60" arrivalLane="bottom-exit_0" arrivalPos="486.40" arrivalSpeed="17.21" duration="142.60" routeLength="992.21" waitingTime="57.90" waitingCount="3" stopTime="0.00" timeLoss="83.94" rerouteNo="0" devices="tripinfo_L2-CV-10 emissions_L2-CV-10 ssm_L2-CV-10 toc_L2-CV-10 driverstateL2-CV-10" vType="L2-CV-94" speedFactor="1.03" vaporized="">