<?xml version="1.0" encoding="UTF-8"?>

<!-- generated on 04/01/21 04:08:25 by Eclipse SUMO sumo Version 1.8.0
<configuration xmlns:xsi="http://www.w3.org/2001/XMLSchema-instance" xsi:noNamespaceSchemaLocation="http://sumo.dlr.de/xsd/sumoConfiguration.xsd">

    <input>
        <net-file value="Collision\BaselinePenetration2\../CollisionIntersection.net.xml"/>
        <route-files value="Collision\BaselinePenetration2\../CrashedVehicleRoutes.rou.xml,Collision\BaselinePenetration2\Route-Files/L4-CV-Route.rou.xml,Collision\BaselinePenetration2\Route-Files/L4-AV-Route.rou.xml,Collision\BaselinePenetration2\Route-Files/L2-CV-Route.rou.xml,Collision\BaselinePenetration2\Route-Files/L2-AV-Route.rou.xml,Collision\BaselinePenetration2\Route-Files/L0-HDV-Route.rou.xml"/>
        <additional-files value="Collision\BaselinePenetration2\../Additional-Files/Collision-Detectors.add.xml,Collision\BaselinePenetration2\../Additional-Files/Collision-TMS-Rerouters.add.xml,Collision\BaselinePenetration2\PreparingVehicleModels/Vehicle-Models/L4-CV.add.xml,Collision\BaselinePenetration2\PreparingVehicleModels/Vehicle-Models/L4-CV-Left.add.xml,Collision\BaselinePenetration2\PreparingVehicleModels/Vehicle-Models/L4-CV-Right.add.xml,Collision\BaselinePenetration2\PreparingVehicleModels/Vehicle-Models/L4-AV.add.xml,Collision\BaselinePenetration2\PreparingVehicleModels/Vehicle-Models/L4-AV-Left.add.xml,Collision\BaselinePenetration2\PreparingVehicleModels/Vehicle-Models/L4-AV-Right.add.xml,Collision\BaselinePenetration2\PreparingVehicleModels/Vehicle-Models/L2-CV.add.xml,Collision\BaselinePenetration2\PreparingVehicleModels/Vehicle-Models/L2-CV-Left.add.xml,Collision\BaselinePenetration2\PreparingVehicleModels/Vehicle-Models/L2-CV-Right.add.xml,Collision\BaselinePenetration2\PreparingVehicleModels/Vehicle-Models/L2-AV.add.xml,Collision\BaselinePenetration2\PreparingVehicleModels/Vehicle-Models/L2-AV-Left.add.xml,Collision\BaselinePenetration2\PreparingVehicleModels/Vehicle-Models/L2-AV-Right.add.xml,Collision\BaselinePenetration2\PreparingVehicleModels/Vehicle-Models/L0-HDV.add.xml,Collision\BaselinePenetration2\PreparingVehicleModels/Vehicle-Models/L0-HDV-Left.add.xml,Collision\BaselinePenetration2\PreparingVehicleModels/Vehicle-Models/L0-HDV-Straight.add.xml,Collision\BaselinePenetration2\../Additional-Files/Collision-Traffic-lights.add.xml,Collision\BaselinePenetration2\../Additional-Files/Collision-Traffic-Signs.add.xml"/>
    </input>

    <output>
        <tripinfo-output value="Collision\BaselinePenetration2\Output-Files\TripInfo.xml"/>
    </output>

    <time>
        <begin value="0"/>
        <step-length value="0.1"/>
    </time>

    <processing>
        <ignore-route-errors value="true"/>
        <waiting-time-memory value="300"/>
        <default.action-step-length value="0.1"/>
    </processing>

    <report>
        <no-warnings value="true"/>
    </report>

    <emissions>
        <device.emissions.probability value="1"/>
    </emissions>

    <traci_server>
        <remote-port value="59234"/>
    </traci_server>

    <gui_only>
        <quit-on-end value="true"/>
        <start value="true"/>
        <tracker-interval value="0.1"/>
    </gui_only>

</configuration>
-->

<tripinfos xmlns:xsi="http://www.w3.org/2001/XMLSchema-instance" xsi:noNamespaceSchemaLocation="http://sumo.dlr.de/xsd/tripinfo_file.xsd">
    <tripinfo id="L2-AV-1" depart="126.20" departLane="left-long-approaching_0" departPos="5.10" departSpeed="0.00" departDelay="0.00" arrival="189.20" arrivalLane="right-exit_0" arrivalPos="486.40" arrivalSpeed="17.62" duration="63.00" routeLength="995.23" waitingTime="0.00" waitingCount="0" stopTime="0.00" timeLoss="6.45" rerouteNo="0" devices="tripinfo_L2-AV-1 emissions_L2-AV-1 ssm_L2-AV-1 toc_L2-AV-1 driverstateL2-AV-1" vType="L2-AV-30" speedFactor="1.06" vaporized="">
        <emissions CO_abs="1421.619162" CO2_abs="209358.470558" HC_abs="8.179942" PMx_abs="2.436227" NOx_abs="70.729660" fuel_abs="89.994749" electricity_abs="0"/>
    </tripinfo>
    <tripinfo id="L4-AV-1" depart="132.00" departLane="right-approaching_0" departPos="5.10" departSpeed="0.00" departDelay="0.00" arrival="192.00" arrivalLane="bottom-exit_1" arrivalPos="486.40" arrivalSpeed="19.65" duration="60.00" routeLength="992.21" waitingTime="0.00" waitingCount="0" stopTime="0.00" timeLoss="8.69" rerouteNo="0" devices="tripinfo_L4-AV-1 emissions_L4-AV-1 ssm_L4-AV-1 toc_L4-AV-1 driverstateL4-AV-1" vType="L4-AV-21" speedFactor="1.18" vaporized="">
        <emissions CO_abs="2497.242814" CO2_abs="257910.300691" HC_abs="15.566068" PMx_abs="4.097572" NOx_abs="95.448820" fuel_abs="110.864418" electricity_abs="0"/>
    </tripinfo>
    <tripinfo id="L0-HDV-2" depart="126.50" departLane="right-approaching_0" departPos="5.10" departSpeed="0.00" departDelay="0.08" arrival="193.70" arrivalLane="top-exit_0" arrivalPos="486.40" arrivalSpeed="17.19" duration="67.20" routeLength="979.43" waitingTime="0.00" waitingCount="0" stopTime="0.00" timeLoss="9.80" rerouteNo="0" devices="tripinfo_L0-HDV-2 emissions_L0-HDV-2 ssm_L0-HDV-2" vType="L0-HDV-32" speedFactor="1.04" vaporized="">
        <emissions CO_abs="2902.276045" CO2_abs="230715.344914" HC_abs="18.577000" PMx_abs="4.061027" NOx_abs="91.948187" fuel_abs="99.174345" electricity_abs="0"/>
    </tripinfo>
    <tripinfo id="L4-AV-0" depart="120.00" departLane="left-long-approaching_0" departPos="5.10" departSpeed="0.00" departDelay="0.00" arrival="198.00" arrivalLane="bottom-exit_0" arrivalPos="486.40" arrivalSpeed="13.99" duration="78.00" routeLength="979.53" waitingTime="0.00" waitingCount="0" stopTime="0.00" timeLoss="6.85" rerouteNo="0" devices="tripinfo_L4-AV-0 emissions_L4-AV-0 ssm_L4-AV-0 toc_L4-AV-0 driverstateL4-AV-0" vType="L4-AV-Right-74" speedFactor="0.84" vaporized="">
        <emissions CO_abs="1727.315537" CO2_abs="219967.366662" HC_abs="11.108278" PMx_abs="2.262777" NOx_abs="76.154798" fuel_abs="94.555644" electricity_abs="0"/>
    </tripinfo>
    <tripinfo id="L2-AV-2" depart="132.40" departLane="right-approaching_0" departPos="5.10" departSpeed="0.00" departDelay="0.00" arrival="205.80" arrivalLane="bottom-exit_0" arrivalPos="486.40" arrivalSpeed="16.83" duration="73.40" routeLength="992.21" waitingTime="0.00" waitingCount="0" stopTime="0.00" timeLoss="13.46" rerouteNo="0" devices="tripinfo_L2-AV-2 emissions_L2-AV-2 ssm_L2-AV-2 toc_L2-AV-2 driverstateL2-AV-2" vType="L2-AV-21" speedFactor="1.01" vaporized="">
        <emissions CO_abs="2605.978115" CO2_abs="240445.997746" HC_abs="15.821711" PMx_abs="3.391322" NOx_abs="89.001771" fuel_abs="103.357905" electricity_abs="0"/>
    </tripinfo>
    <tripinfo id="L2-CV-5" depart="151.00" departLane="right-approaching_0" departPos="5.10" departSpeed="0.00" departDelay="0.00" arrival="212.00" arrivalLane="bottom-exit_1" arrivalPos="486.40" arrivalSpeed="19.05" duration="61.00" routeLength="992.21" waitingTime="0.00" waitingCount="0" stopTime="0.00" timeLoss="8.02" rerouteNo="0" devices="tripinfo_L2-CV-5 emissions_L2-CV-5 ssm_L2-CV-5 toc_L2-CV-5 driverstateL2-CV-5" vType="L2-CV-34" speedFactor="1.14" vaporized="">
        <emissions CO_abs="1888.211834" CO2_abs="238712.317560" HC_abs="12.596018" PMx_abs="3.431465" NOx_abs="85.814102" fuel_abs="102.612282" electricity_abs="0"/>
    </tripinfo>
    <tripinfo id="L0-HDV-9" depart="149.00" departLane="left-long-approaching_0" departPos="5.10" departSpeed="0.00" departDelay="0.11" arrival="222.30" arrivalLane="top-exit_0" arrivalPos="486.40" arrivalSpeed="15.01" duration="73.30" routeLength="992.31" waitingTime="0.00" waitingCount="0" stopTime="0.00" timeLoss="6.36" rerouteNo="0" devices="tripinfo_L0-HDV-9 emissions_L0-HDV-9 ssm_L0-HDV-9" vType="L0-HDV-Left-92" speedFactor="0.90" vaporized="">
        <emissions CO_abs="1961.412313" CO2_abs="177281.926372" HC_abs="12.878291" PMx_abs="2.707600" NOx_abs="68.037711" fuel_abs="76.206053" electricity_abs="0"/>
    </tripinfo>
    <tripinfo id="L0-HDV-13" depart="161.80" departLane="bottom-approaching_0" departPos="5.10" departSpeed="0.00" departDelay="0.07" arrival="234.70" arrivalLane="top-exit_1" arrivalPos="486.40" arrivalSpeed="21.74" duration="72.90" routeLength="994.90" waitingTime="13.40" waitingCount="1" stopTime="0.00" timeLoss="27.14" rerouteNo="0" devices="tripinfo_L0-HDV-13 emissions_L0-HDV-13 ssm_L0-HDV-13" vType="L0-HDV-33" speedFactor="1.31" vaporized="">
        <emissions CO_abs="6046.010739" CO2_abs="294060.895593" HC_abs="34.624342" PMx_abs="6.131534" NOx_abs="122.784943" fuel_abs="126.404436" electricity_abs="0"/>
    </tripinfo>
    <tripinfo id="L2-AV-0" depart="120.00" departLane="bottom-approaching_0" departPos="5.10" departSpeed="0.00" departDelay="0.00" arrival="240.30" arrivalLane="right-exit_0" arrivalPos="486.40" arrivalSpeed="16.59" duration="120.30" routeLength="979.43" waitingTime="45.70" waitingCount="1" stopTime="0.00" timeLoss="60.32" rerouteNo="0" devices="tripinfo_L2-AV-0 emissions_L2-AV-0 ssm_L2-AV-0 toc_L2-AV-0 driverstateL2-AV-0" vType="L2-AV-56" speedFactor="1.00" vaporized="">
        <emissions CO_abs="10221.525669" CO2_abs="363498.864517" HC_abs="52.416914" PMx_abs="6.275713" NOx_abs="143.256172" fuel_abs="156.256766" electricity_abs="0"/>
    </tripinfo>
    <tripinfo id="L0-HDV-5" depart="136.40" departLane="top-approaching_0" departPos="5.10" departSpeed="0.00" departDelay="0.35" arrival="240.40" arrivalLane="bottom-exit_0" arrivalPos="486.40" arrivalSpeed="16.11" duration="104.00" routeLength="994.90" waitingTime="30.70" waitingCount="1" stopTime="0.00" timeLoss="42.62" rerouteNo="0" devices="tripinfo_L0-HDV-5 emissions_L0-HDV-5 ssm_L0-HDV-5" vType="L0-HDV-42" speedFactor="0.97" vaporized="">
        <emissions CO_abs="8484.893756" CO2_abs="322921.972699" HC_abs="46.172463" PMx_abs="6.439162" NOx_abs="135.363113" fuel_abs="138.812358" electricity_abs="0"/>
    </tripinfo>
    <tripinfo id="L2-AV-3" depart="138.60" departLane="bottom-approaching_0" departPos="5.10" departSpeed="0.00" departDelay="0.00" arrival="242.00" arrivalLane="top-exit_0" arrivalPos="486.40" arrivalSpeed="15.11" duration="103.40" routeLength="994.90" waitingTime="27.80" waitingCount="1" stopTime="0.00" timeLoss="37.42" rerouteNo="0" devices="tripinfo_L2-AV-3 emissions_L2-AV-3 ssm_L2-AV-3 toc_L2-AV-3 driverstateL2-AV-3" vType="L2-AV-3" speedFactor="0.91" vaporized="">
        <emissions CO_abs="6615.604196" CO2_abs="305595.270861" HC_abs="34.591596" PMx_abs="4.549783" NOx_abs="115.395796" fuel_abs="131.365211" electricity_abs="0"/>
    </tripinfo>
    <tripinfo id="L0-HDV-10" depart="154.50" departLane="top-approaching_0" departPos="5.10" departSpeed="0.00" departDelay="2.40" arrival="242.10" arrivalLane="bottom-exit_1" arrivalPos="486.40" arrivalSpeed="16.48" duration="87.60" routeLength="994.90" waitingTime="12.50" waitingCount="1" stopTime="0.00" timeLoss="27.13" rerouteNo="0" devices="tripinfo_L0-HDV-10 emissions_L0-HDV-10 ssm_L0-HDV-10" vType="L0-HDV-6" speedFactor="0.99" vaporized="">
        <emissions CO_abs="4572.217394" CO2_abs="221794.026953" HC_abs="25.068718" PMx_abs="3.767347" NOx_abs="87.453655" fuel_abs="95.341047" electricity_abs="0"/>
    </tripinfo>
    <tripinfo id="L0-HDV-11" depart="155.40" departLane="top-approaching_0" departPos="5.10" departSpeed="0.00" departDelay="0.09" arrival="244.30" arrivalLane="bottom-exit_0" arrivalPos="486.40" arrivalSpeed="20.54" duration="88.90" routeLength="994.90" waitingTime="10.90" waitingCount="1" stopTime="0.00" timeLoss="40.42" rerouteNo="0" devices="tripinfo_L0-HDV-11 emissions_L0-HDV-11 ssm_L0-HDV-11" vType="L0-HDV-10" speedFactor="1.23" vaporized="">
        <emissions CO_abs="6055.616236" CO2_abs="294856.955571" HC_abs="34.481304" PMx_abs="5.345931" NOx_abs="118.682442" fuel_abs="126.747763" electricity_abs="0"/>
    </tripinfo>
    <tripinfo id="L0-HDV-18" depart="177.80" departLane="bottom-approaching_0" departPos="5.10" departSpeed="0.00" departDelay="0.02" arrival="244.30" arrivalLane="top-exit_0" arrivalPos="486.40" arrivalSpeed="16.94" duration="66.50" routeLength="994.90" waitingTime="0.00" waitingCount="0" stopTime="0.00" timeLoss="7.69" rerouteNo="0" devices="tripinfo_L0-HDV-18 emissions_L0-HDV-18 ssm_L0-HDV-18" vType="L0-HDV-8" speedFactor="1.02" vaporized="">
        <emissions CO_abs="1503.044834" CO2_abs="146420.443000" HC_abs="9.107217" PMx_abs="1.965816" NOx_abs="52.877213" fuel_abs="62.940290" electricity_abs="0"/>
    </tripinfo>
    <tripinfo id="L4-AV-3" depart="156.00" departLane="bottom-approaching_0" departPos="5.10" departSpeed="0.00" departDelay="0.00" arrival="244.60" arrivalLane="right-exit_0" arrivalPos="486.40" arrivalSpeed="16.58" duration="88.60" routeLength="979.43" waitingTime="0.00" waitingCount="0" stopTime="0.00" timeLoss="28.56" rerouteNo="0" devices="tripinfo_L4-AV-3 emissions_L4-AV-3 ssm_L4-AV-3 toc_L4-AV-3 driverstateL4-AV-3" vType="L4-AV-41" speedFactor="0.99" vaporized="">
        <emissions CO_abs="2794.354629" CO2_abs="245397.312543" HC_abs="16.243817" PMx_abs="3.337395" NOx_abs="89.666224" fuel_abs="105.486521" electricity_abs="0"/>
    </tripinfo>
    <tripinfo id="L2-CV-2" depart="132.40" departLane="top-approaching_0" departPos="5.10" departSpeed="0.00" departDelay="0.00" arrival="250.10" arrivalLane="right-exit_0" arrivalPos="486.40" arrivalSpeed="20.01" duration="117.70" routeLength="992.21" waitingTime="39.80" waitingCount="2" stopTime="0.00" timeLoss="67.26" rerouteNo="0" devices="tripinfo_L2-CV-2 emissions_L2-CV-2 ssm_L2-CV-2 toc_L2-CV-2 driverstateL2-CV-2" vType="L2-CV-0" speedFactor="1.20" vaporized="">
        <emissions CO_abs="10802.996880" CO2_abs="398964.336190" HC_abs="57.388727" PMx_abs="7.462935" NOx_abs="160.371097" fuel_abs="171.501401" electricity_abs="0"/>
    </tripinfo>
    <tripinfo id="L0-HDV-4" depart="136.30" departLane="top-approaching_0" departPos="5.10" departSpeed="0.00" departDelay="3.46" arrival="251.90" arrivalLane="right-exit_0" arrivalPos="486.40" arrivalSpeed="19.66" duration="115.60" routeLength="992.21" waitingTime="37.60" waitingCount="2" stopTime="0.00" timeLoss="64.28" rerouteNo="0" devices="tripinfo_L0-HDV-4 emissions_L0-HDV-4 ssm_L0-HDV-4" vType="L0-HDV-52" speedFactor="1.18" vaporized="">
        <emissions CO_abs="10301.500220" CO2_abs="344328.354532" HC_abs="54.510635" PMx_abs="6.780077" NOx_abs="142.466268" fuel_abs="148.015446" electricity_abs="0"/>
    </tripinfo>
    <tripinfo id="L2-CV-8" depart="169.60" departLane="top-approaching_0" departPos="5.10" departSpeed="0.00" departDelay="0.00" arrival="254.90" arrivalLane="right-exit_0" arrivalPos="486.40" arrivalSpeed="18.04" duration="85.30" routeLength="992.21" waitingTime="1.40" waitingCount="1" stopTime="0.00" timeLoss="29.43" rerouteNo="0" devices="tripinfo_L2-CV-8 emissions_L2-CV-8 ssm_L2-CV-8 toc_L2-CV-8 driverstateL2-CV-8" vType="L2-CV-48" speedFactor="1.08" vaporized="">
        <emissions CO_abs="3912.332778" CO2_abs="277024.193581" HC_abs="22.289956" PMx_abs="4.209324" NOx_abs="103.527107" fuel_abs="119.081775" electricity_abs="0"/>
    </tripinfo>
    <tripinfo id="L0-HDV-24" depart="197.10" departLane="bottom-approaching_0" departPos="5.10" departSpeed="0.00" departDelay="0.06" arrival="260.70" arrivalLane="right-exit_0" arrivalPos="486.40" arrivalSpeed="18.95" duration="63.60" routeLength="979.43" waitingTime="0.00" waitingCount="0" stopTime="0.00" timeLoss="11.03" rerouteNo="0" devices="tripinfo_L0-HDV-24 emissions_L0-HDV-24 ssm_L0-HDV-24" vType="L0-HDV-52" speedFactor="1.14" vaporized="">
        <emissions CO_abs="2419.728179" CO2_abs="197295.489723" HC_abs="14.946995" PMx_abs="3.264529" NOx_abs="76.101846" fuel_abs="84.808892" electricity_abs="0"/>
    </tripinfo>
    <tripinfo id="L2-AV-11" depart="188.20" departLane="top-approaching_0" departPos="5.10" departSpeed="0.00" departDelay="0.00" arrival="267.30" arrivalLane="right-exit_0" arrivalPos="486.40" arrivalSpeed="15.47" duration="79.10" routeLength="992.21" waitingTime="0.00" waitingCount="0" stopTime="0.00" timeLoss="13.91" rerouteNo="0" devices="tripinfo_L2-AV-11 emissions_L2-AV-11 ssm_L2-AV-11 toc_L2-AV-11 driverstateL2-AV-11" vType="L2-AV-57" speedFactor="0.93" vaporized="">
        <emissions CO_abs="2723.040211" CO2_abs="253698.617122" HC_abs="15.997129" PMx_abs="3.296808" NOx_abs="92.455583" fuel_abs="109.054941" electricity_abs="0"/>
    </tripinfo>
    <tripinfo id="L0-HDV-6" depart="139.30" departLane="left-long-approaching_0" departPos="5.10" departSpeed="0.00" departDelay="0.04" arrival="285.10" arrivalLane="bottom-exit_0" arrivalPos="486.40" arrivalSpeed="17.87" duration="145.80" routeLength="979.53" waitingTime="72.30" waitingCount="1" stopTime="0.00" timeLoss="90.01" rerouteNo="0" devices="tripinfo_L0-HDV-6 emissions_L0-HDV-6 ssm_L0-HDV-6" vType="L0-HDV-8" speedFactor="1.07" vaporized="">
        <emissions CO_abs="15053.209532" CO2_abs="403549.374428" HC_abs="77.201701" PMx_abs="8.240391" NOx_abs="169.922526" fuel_abs="173.474568" electricity_abs="0"/>
    </tripinfo>
    <tripinfo id="L2-CV-7" depart="163.40" departLane="right-approaching_0" departPos="5.10" departSpeed="0.00" departDelay="0.00" arrival="286.70" arrivalLane="top-exit_0" arrivalPos="486.40" arrivalSpeed="17.06" duration="123.30" routeLength="979.43" waitingTime="46.30" waitingCount="1" stopTime="0.00" timeLoss="64.93" rerouteNo="0" devices="tripinfo_L2-CV-7 emissions_L2-CV-7 ssm_L2-CV-7 toc_L2-CV-7 driverstateL2-CV-7" vType="L2-CV-0" speedFactor="1.02" vaporized="">
        <emissions CO_abs="10778.117676" CO2_abs="377020.388572" HC_abs="55.547966" PMx_abs="6.594130" NOx_abs="149.362587" fuel_abs="162.069314" electricity_abs="0"/>
    </tripinfo>
    <tripinfo id="L0-HDV-23" depart="195.20" departLane="left-long-approaching_0" departPos="5.10" departSpeed="0.00" departDelay="1.37" arrival="287.20" arrivalLane="right-exit_1" arrivalPos="486.40" arrivalSpeed="19.80" duration="92.00" routeLength="995.23" waitingTime="16.80" waitingCount="1" stopTime="0.00" timeLoss="42.00" rerouteNo="0" devices="tripinfo_L0-HDV-23 emissions_L0-HDV-23 ssm_L0-HDV-23" vType="L0-HDV-Straight-23" speedFactor="1.20" vaporized="">
        <emissions CO_abs="6990.580288" CO2_abs="316920.127974" HC_abs="39.306549" PMx_abs="6.002862" NOx_abs="129.491136" fuel_abs="136.231876" electricity_abs="0"/>
    </tripinfo>
    <tripinfo id="L2-AV-4" depart="144.80" departLane="left-long-approaching_0" departPos="5.10" departSpeed="0.00" departDelay="0.00" arrival="287.50" arrivalLane="bottom-exit_0" arrivalPos="486.40" arrivalSpeed="18.70" duration="142.70" routeLength="979.53" waitingTime="0.10" waitingCount="1" stopTime="0.00" timeLoss="89.38" rerouteNo="0" devices="tripinfo_L2-AV-4 emissions_L2-AV-4 ssm_L2-AV-4 toc_L2-AV-4 driverstateL2-AV-4" vType="L2-AV-Right-79" speedFactor="1.12" vaporized="">
        <emissions CO_abs="3538.535604" CO2_abs="259431.305491" HC_abs="20.645149" PMx_abs="3.819691" NOx_abs="96.861382" fuel_abs="111.519364" electricity_abs="0"/>
    </tripinfo>
    <tripinfo id="L4-CV-4" depart="168.00" departLane="left-long-approaching_0" departPos="5.10" departSpeed="0.00" departDelay="0.00" arrival="288.20" arrivalLane="right-exit_0" arrivalPos="486.40" arrivalSpeed="16.52" duration="120.20" routeLength="995.23" waitingTime="41.70" waitingCount="1" stopTime="0.00" timeLoss="59.87" rerouteNo="0" devices="tripinfo_L4-CV-4 emissions_L4-CV-4 ssm_L4-CV-4 toc_L4-CV-4 driverstateL4-CV-4" vType="L4-CV-12" speedFactor="0.99" vaporized="">
        <emissions CO_abs="9892.773691" CO2_abs="363930.058465" HC_abs="51.011948" PMx_abs="6.129845" NOx_abs="142.567467" fuel_abs="156.442073" electricity_abs="0"/>
    </tripinfo>
    <tripinfo id="L2-AV-8" depart="169.60" departLane="right-approaching_0" departPos="5.10" departSpeed="0.00" departDelay="0.00" arrival="288.40" arrivalLane="top-exit_0" arrivalPos="486.40" arrivalSpeed="16.90" duration="118.80" routeLength="979.43" waitingTime="15.30" waitingCount="1" stopTime="0.00" timeLoss="59.86" rerouteNo="0" devices="tripinfo_L2-AV-8 emissions_L2-AV-8 ssm_L2-AV-8 toc_L2-AV-8 driverstateL2-AV-8" vType="L2-AV-24" speedFactor="1.01" vaporized="">
        <emissions CO_abs="2877.028189" CO2_abs="245394.611639" HC_abs="16.437488" PMx_abs="3.396650" NOx_abs="89.658728" fuel_abs="105.485341" electricity_abs="0"/>
    </tripinfo>
    <tripinfo id="L0-HDV-32" depart="222.80" departLane="left-long-approaching_0" departPos="5.10" departSpeed="0.00" departDelay="0.08" arrival="288.60" arrivalLane="right-exit_1" arrivalPos="486.40" arrivalSpeed="20.14" duration="65.80" routeLength="995.23" waitingTime="0.00" waitingCount="0" stopTime="0.00" timeLoss="16.34" rerouteNo="0" devices="tripinfo_L0-HDV-32 emissions_L0-HDV-32 ssm_L0-HDV-32" vType="L0-HDV-Straight-13" speedFactor="1.21" vaporized="">
        <emissions CO_abs="2940.708833" CO2_abs="237555.277225" HC_abs="18.978767" PMx_abs="4.132867" NOx_abs="93.289838" fuel_abs="102.114686" electricity_abs="0"/>
    </tripinfo>
    <tripinfo id="L2-AV-14" depart="207.00" departLane="right-approaching_0" departPos="5.10" departSpeed="0.00" departDelay="0.20" arrival="290.80" arrivalLane="top-exit_0" arrivalPos="486.40" arrivalSpeed="19.62" duration="83.80" routeLength="979.43" waitingTime="0.00" waitingCount="0" stopTime="0.00" timeLoss="33.03" rerouteNo="0" devices="tripinfo_L2-AV-14 emissions_L2-AV-14 ssm_L2-AV-14 toc_L2-AV-14 driverstateL2-AV-14" vType="L2-AV-30" speedFactor="1.18" vaporized="">
        <emissions CO_abs="3359.746951" CO2_abs="230178.564837" HC_abs="19.841896" PMx_abs="3.733765" NOx_abs="89.316250" fuel_abs="98.944388" electricity_abs="0"/>
    </tripinfo>
    <tripinfo id="L2-AV-12" depart="202.70" departLane="left-long-approaching_0" departPos="5.10" departSpeed="0.00" departDelay="8.30" arrival="291.50" arrivalLane="bottom-exit_0" arrivalPos="486.40" arrivalSpeed="18.31" duration="88.80" routeLength="979.53" waitingTime="0.00" waitingCount="0" stopTime="0.00" timeLoss="34.34" rerouteNo="0" devices="tripinfo_L2-AV-12 emissions_L2-AV-12 ssm_L2-AV-12 toc_L2-AV-12 driverstateL2-AV-12" vType="L2-AV-Right-52" speedFactor="1.10" vaporized="">
        <emissions CO_abs="3125.384453" CO2_abs="254208.305155" HC_abs="18.203798" PMx_abs="3.687224" NOx_abs="94.026954" fuel_abs="109.273957" electricity_abs="0"/>
    </tripinfo>
    <tripinfo id="L0-HDV-19" depart="181.00" departLane="right-approaching_0" departPos="5.10" departSpeed="0.00" departDelay="0.01" arrival="292.70" arrivalLane="top-exit_0" arrivalPos="486.40" arrivalSpeed="15.30" duration="111.70" routeLength="979.43" waitingTime="14.80" waitingCount="1" stopTime="0.00" timeLoss="46.98" rerouteNo="0" devices="tripinfo_L0-HDV-19 emissions_L0-HDV-19 ssm_L0-HDV-19" vType="L0-HDV-78" speedFactor="0.92" vaporized="">
        <emissions CO_abs="5284.650335" CO2_abs="238743.782038" HC_abs="29.528837" PMx_abs="4.314687" NOx_abs="97.103699" fuel_abs="102.627065" electricity_abs="0"/>
    </tripinfo>
    <tripinfo id="L0-HDV-21" depart="187.50" departLane="left-long-approaching_0" departPos="5.10" departSpeed="0.00" departDelay="0.09" arrival="293.80" arrivalLane="bottom-exit_0" arrivalPos="486.40" arrivalSpeed="14.76" duration="106.30" routeLength="979.53" waitingTime="0.00" waitingCount="0" stopTime="0.00" timeLoss="38.89" rerouteNo="0" devices="tripinfo_L0-HDV-21 emissions_L0-HDV-21 ssm_L0-HDV-21" vType="L0-HDV-58" speedFactor="0.89" vaporized="">
        <emissions CO_abs="3479.785274" CO2_abs="196465.794333" HC_abs="20.084143" PMx_abs="3.133810" NOx_abs="76.737969" fuel_abs="84.453234" electricity_abs="0"/>
    </tripinfo>
    <tripinfo id="L0-HDV-16" depart="171.90" departLane="left-long-approaching_0" departPos="5.10" departSpeed="0.00" departDelay="0.54" arrival="296.20" arrivalLane="top-exit_0" arrivalPos="486.40" arrivalSpeed="14.46" duration="124.30" routeLength="992.31" waitingTime="38.90" waitingCount="2" stopTime="0.00" timeLoss="54.82" rerouteNo="0" devices="tripinfo_L0-HDV-16 emissions_L0-HDV-16 ssm_L0-HDV-16" vType="L0-HDV-Left-92" speedFactor="0.87" vaporized="">
        <emissions CO_abs="9320.110453" CO2_abs="303876.786680" HC_abs="49.395377" PMx_abs="5.773920" NOx_abs="125.792995" fuel_abs="130.627074" electricity_abs="0"/>
    </tripinfo>
    <tripinfo id="L2-CV-15" depart="213.00" departLane="left-long-approaching_0" departPos="5.10" departSpeed="0.00" departDelay="0.00" arrival="296.60" arrivalLane="bottom-exit_0" arrivalPos="486.40" arrivalSpeed="16.45" duration="83.60" routeLength="979.53" waitingTime="0.00" waitingCount="0" stopTime="0.00" timeLoss="23.03" rerouteNo="0" devices="tripinfo_L2-CV-15 emissions_L2-CV-15 ssm_L2-CV-15 toc_L2-CV-15 driverstateL2-CV-15" vType="L2-CV-Right-48" speedFactor="0.99" vaporized="">
        <emissions CO_abs="2865.261727" CO2_abs="249265.526098" HC_abs="16.858687" PMx_abs="3.357347" NOx_abs="90.950390" fuel_abs="107.149427" electricity_abs="0"/>
    </tripinfo>
    <tripinfo id="L2-AV-15" depart="214.00" departLane="right-approaching_0" departPos="5.10" departSpeed="0.00" departDelay="1.00" arrival="299.10" arrivalLane="top-exit_0" arrivalPos="486.40" arrivalSpeed="16.74" duration="85.10" routeLength="979.43" waitingTime="0.00" waitingCount="0" stopTime="0.00" timeLoss="25.63" rerouteNo="0" devices="tripinfo_L2-AV-15 emissions_L2-AV-15 ssm_L2-AV-15 toc_L2-AV-15 driverstateL2-AV-15" vType="L2-AV-97" speedFactor="1.00" vaporized="">
        <emissions CO_abs="3083.437294" CO2_abs="223894.515497" HC_abs="17.855177" PMx_abs="3.325679" NOx_abs="85.038386" fuel_abs="96.243318" electricity_abs="0"/>
    </tripinfo>
    <tripinfo id="L0-HDV-12" depart="158.60" departLane="right-approaching_0" departPos="5.10" departSpeed="0.00" departDelay="0.08" arrival="299.80" arrivalLane="bottom-exit_0" arrivalPos="486.40" arrivalSpeed="15.20" duration="141.20" routeLength="992.21" waitingTime="62.50" waitingCount="2" stopTime="0.00" timeLoss="74.87" rerouteNo="0" devices="tripinfo_L0-HDV-12 emissions_L0-HDV-12 ssm_L0-HDV-12" vType="L0-HDV-19" speedFactor="0.91" vaporized="">
        <emissions CO_abs="12454.757677" CO2_abs="328542.448459" HC_abs="63.324016" PMx_abs="6.613342" NOx_abs="138.107504" fuel_abs="141.231392" electricity_abs="0"/>
    </tripinfo>
    <tripinfo id="L2-AV-10" depart="183.80" departLane="right-approaching_0" departPos="5.10" departSpeed="0.00" departDelay="1.80" arrival="302.90" arrivalLane="bottom-exit_1" arrivalPos="486.40" arrivalSpeed="17.75" duration="119.10" routeLength="992.21" waitingTime="0.00" waitingCount="0" stopTime="0.00" timeLoss="62.30" rerouteNo="0" devices="tripinfo_L2-AV-10 emissions_L2-AV-10 ssm_L2-AV-10 toc_L2-AV-10 driverstateL2-AV-10" vType="L2-AV-73" speedFactor="1.06" vaporized="">
        <emissions CO_abs="3227.829773" CO2_abs="235517.652393" HC_abs="18.565717" PMx_abs="3.564958" NOx_abs="88.623385" fuel_abs="101.239628" electricity_abs="0"/>
    </tripinfo>
    <tripinfo id="L4-AV-8" depart="217.60" departLane="right-approaching_0" departPos="5.10" departSpeed="0.00" departDelay="1.60" arrival="304.00" arrivalLane="top-exit_0" arrivalPos="486.40" arrivalSpeed="15.01" duration="86.40" routeLength="979.43" waitingTime="0.00" waitingCount="0" stopTime="0.00" timeLoss="20.16" rerouteNo="0" devices="tripinfo_L4-AV-8 emissions_L4-AV-8 ssm_L4-AV-8 toc_L4-AV-8 driverstateL4-AV-8" vType="L4-AV-57" speedFactor="0.90" vaporized="">
        <emissions CO_abs="2543.359975" CO2_abs="222887.250615" HC_abs="14.915570" PMx_abs="2.815063" NOx_abs="81.226904" fuel_abs="95.810597" electricity_abs="0"/>
    </tripinfo>
    <tripinfo id="L2-AV-7" depart="167.30" departLane="right-approaching_0" departPos="5.10" departSpeed="0.00" departDelay="3.90" arrival="304.50" arrivalLane="bottom-exit_0" arrivalPos="486.40" arrivalSpeed="14.90" duration="137.20" routeLength="992.21" waitingTime="0.00" waitingCount="0" stopTime="0.00" timeLoss="69.52" rerouteNo="0" devices="tripinfo_L2-AV-7 emissions_L2-AV-7 ssm_L2-AV-7 toc_L2-AV-7 driverstateL2-AV-7" vType="L2-AV-15" speedFactor="0.89" vaporized="">
        <emissions CO_abs="3002.185426" CO2_abs="237223.322087" HC_abs="17.017299" PMx_abs="2.973882" NOx_abs="85.868049" fuel_abs="101.973415" electricity_abs="0"/>
    </tripinfo>
    <tripinfo id="L0-HDV-30" depart="220.70" departLane="right-approaching_0" departPos="5.10" departSpeed="0.00" departDelay="4.40" arrival="306.30" arrivalLane="top-exit_0" arrivalPos="486.40" arrivalSpeed="16.46" duration="85.60" routeLength="979.43" waitingTime="0.00" waitingCount="0" stopTime="0.00" timeLoss="25.85" rerouteNo="0" devices="tripinfo_L0-HDV-30 emissions_L0-HDV-30 ssm_L0-HDV-30" vType="L0-HDV-27" speedFactor="1.00" vaporized="">
        <emissions CO_abs="3597.160096" CO2_abs="239944.177905" HC_abs="22.004196" PMx_abs="4.293122" NOx_abs="97.825281" fuel_abs="103.141634" electricity_abs="0"/>
    </tripinfo>
    <tripinfo id="L0-HDV-28" depart="210.40" departLane="right-approaching_0" departPos="5.10" departSpeed="0.00" departDelay="0.52" arrival="309.30" arrivalLane="bottom-exit_0" arrivalPos="486.40" arrivalSpeed="17.41" duration="98.90" routeLength="992.21" waitingTime="0.00" waitingCount="0" stopTime="0.00" timeLoss="41.12" rerouteNo="0" devices="tripinfo_L0-HDV-28 emissions_L0-HDV-28 ssm_L0-HDV-28" vType="L0-HDV-50" speedFactor="1.05" vaporized="">
        <emissions CO_abs="4860.685038" CO2_abs="253592.257897" HC_abs="27.914633" PMx_abs="4.428492" NOx_abs="101.568588" fuel_abs="109.009519" electricity_abs="0"/>
    </tripinfo>
    <tripinfo id="L4-AV-6" depart="195.10" departLane="left-long-approaching_0" departPos="5.10" departSpeed="0.00" departDelay="3.10" arrival="310.60" arrivalLane="top-exit_1" arrivalPos="486.40" arrivalSpeed="19.66" duration="115.50" routeLength="992.31" waitingTime="0.00" waitingCount="0" stopTime="0.00" timeLoss="64.15" rerouteNo="0" devices="tripinfo_L4-AV-6 emissions_L4-AV-6 ssm_L4-AV-6 toc_L4-AV-6 driverstateL4-AV-6" vType="L4-AV-Left-42" speedFactor="1.18" vaporized="">