<?xml version="1.0" encoding="UTF-8"?>

<!-- generated on 04/05/21 19:23:54 by Eclipse SUMO sumo Version 1.8.0
<configuration xmlns:xsi="http://www.w3.org/2001/XMLSchema-instance" xsi:noNamespaceSchemaLocation="http://sumo.dlr.de/xsd/sumoConfiguration.xsd">

    <input>
        <net-file value="Roadworks\RealTMSPenetration2\../RoadworksIntersection.net.xml"/>
        <route-files value="Roadworks\RealTMSPenetration2\Route-Files/L4-CV-Route.rou.xml,Roadworks\RealTMSPenetration2\Route-Files/L4-AV-Route.rou.xml,Roadworks\RealTMSPenetration2\Route-Files/L2-CV-Route.rou.xml,Roadworks\RealTMSPenetration2\Route-Files/L2-AV-Route.rou.xml,Roadworks\RealTMSPenetration2\Route-Files/L0-HDV-Route.rou.xml"/>
        <additional-files value="Roadworks\RealTMSPenetration2\../Additional-Files/Roadworks-Detectors.add.xml,Roadworks\RealTMSPenetration2\../Additional-Files/Roadworks-Rerouters.add.xml,Roadworks\RealTMSPenetration2\../Additional-Files/Roadworks-Traffic-lights.add.xml,Roadworks\RealTMSPenetration2\../Additional-Files/Roadworks-Traffic-Signs.add.xml,Roadworks\RealTMSPenetration2\PreparingVehicleModels/Vehicle-Models/L4-CV.add.xml,Roadworks\RealTMSPenetration2\PreparingVehicleModels/Vehicle-Models/L4-CV-Left.add.xml,Roadworks\RealTMSPenetration2\PreparingVehicleModels/Vehicle-Models/L4-CV-Right.add.xml,Roadworks\RealTMSPenetration2\PreparingVehicleModels/Vehicle-Models/L4-AV.add.xml,Roadworks\RealTMSPenetration2\PreparingVehicleModels/Vehicle-Models/L4-AV-Left.add.xml,Roadworks\RealTMSPenetration2\PreparingVehicleModels/Vehicle-Models/L4-AV-Right.add.xml,Roadworks\RealTMSPenetration2\PreparingVehicleModels/Vehicle-Models/L2-CV.add.xml,Roadworks\RealTMSPenetration2\PreparingVehicleModels/Vehicle-Models/L2-CV-Left.add.xml,Roadworks\RealTMSPenetration2\PreparingVehicleModels/Vehicle-Models/L2-CV-Right.add.xml,Roadworks\RealTMSPenetration2\PreparingVehicleModels/Vehicle-Models/L2-AV.add.xml,Roadworks\RealTMSPenetration2\PreparingVehicleModels/Vehicle-Models/L2-AV-Left.add.xml,Roadworks\RealTMSPenetration2\PreparingVehicleModels/Vehicle-Models/L2-AV-Right.add.xml,Roadworks\RealTMSPenetration2\PreparingVehicleModels/Vehicle-Models/L0-HDV.add.xml,Roadworks\RealTMSPenetration2\PreparingVehicleModels/Vehicle-Models/L0-HDV-Left.add.xml,Roadworks\RealTMSPenetration2\PreparingVehicleModels/Vehicle-Models/L0-HDV-Straight.add.xml"/>
    </input>

    <output>
        <tripinfo-output value="Roadworks\RealTMSPenetration2\Output-Files\TripInfo.xml"/>
    </output>

    <time>
        <begin value="0"/>
        <step-length value="0.1"/>
    </time>

    <processing>
        <ignore-route-errors value="true"/>
        <waiting-time-memory value="300"/>
        <default.action-step-length value="0.1"/>
    </processing>

    <report>
        <no-warnings value="true"/>
    </report>

    <emissions>
        <device.emissions.probability value="1"/>
    </emissions>

    <traci_server>
        <remote-port value="60606"/>
    </traci_server>

    <gui_only>
        <quit-on-end value="true"/>
        <start value="true"/>
        <tracker-interval value="0.1"/>
    </gui_only>

</configuration>
-->

<tripinfos xmlns:xsi="http://www.w3.org/2001/XMLSchema-instance" xsi:noNamespaceSchemaLocation="http://sumo.dlr.de/xsd/tripinfo_file.xsd">
    <tripinfo id="L0-HDV-3" depart="8.10" departLane="bottom-approaching_0" departPos="5.10" departSpeed="0.00" departDelay="0.03" arrival="78.20" arrivalLane="left-exit_0" arrivalPos="431.00" arrivalSpeed="15.56" duration="70.10" routeLength="996.90" waitingTime="0.00" waitingCount="0" stopTime="0.00" timeLoss="3.64" rerouteNo="0" devices="tripinfo_L0-HDV-3 emissions_L0-HDV-3 ssm_L0-HDV-3" vType="L0-HDV-29" speedFactor="0.94" vaporized="">
        <emissions CO_abs="2143.531811" CO2_abs="196416.813169" HC_abs="14.213516" PMx_abs="3.249408" NOx_abs="76.990981" fuel_abs="84.430936" electricity_abs="0"/>
    </tripinfo>
    <tripinfo id="L0-HDV-4" depart="10.80" departLane="top-approaching_0" departPos="5.10" departSpeed="0.00" departDelay="0.04" arrival="82.00" arrivalLane="right-exit_0" arrivalPos="486.40" arrivalSpeed="16.42" duration="71.20" routeLength="992.21" waitingTime="0.00" waitingCount="0" stopTime="0.00" timeLoss="9.82" rerouteNo="0" devices="tripinfo_L0-HDV-4 emissions_L0-HDV-4 ssm_L0-HDV-4" vType="L0-HDV-86" speedFactor="0.99" vaporized="">
        <emissions CO_abs="2166.913301" CO2_abs="191283.731606" HC_abs="14.041098" PMx_abs="2.898660" NOx_abs="72.716799" fuel_abs="82.224959" electricity_abs="0"/>
    </tripinfo>
    <tripinfo id="L0-HDV-6" depart="16.20" departLane="left-long-approaching_0" departPos="5.10" departSpeed="0.00" departDelay="0.06" arrival="87.00" arrivalLane="bottom-exit_0" arrivalPos="489.60" arrivalSpeed="19.63" duration="70.80" routeLength="983.54" waitingTime="4.40" waitingCount="1" stopTime="0.00" timeLoss="18.53" rerouteNo="0" devices="tripinfo_L0-HDV-6 emissions_L0-HDV-6 ssm_L0-HDV-6" vType="L0-HDV-71" speedFactor="1.18" vaporized="">
        <emissions CO_abs="3940.068340" CO2_abs="242928.552101" HC_abs="23.575001" PMx_abs="4.473208" NOx_abs="97.433722" fuel_abs="104.424781" electricity_abs="0"/>
    </tripinfo>
    <tripinfo id="L0-HDV-2" depart="5.40" departLane="right-approaching_0" departPos="5.10" departSpeed="0.00" departDelay="0.02" arrival="89.40" arrivalLane="top-exit_0" arrivalPos="486.40" arrivalSpeed="19.93" duration="84.00" routeLength="979.43" waitingTime="13.10" waitingCount="1" stopTime="0.00" timeLoss="34.12" rerouteNo="0" devices="tripinfo_L0-HDV-2 emissions_L0-HDV-2 ssm_L0-HDV-2" vType="L0-HDV-30" speedFactor="1.20" vaporized="">
        <emissions CO_abs="6079.093239" CO2_abs="294620.598572" HC_abs="34.630360" PMx_abs="5.572064" NOx_abs="120.039148" fuel_abs="126.645839" electricity_abs="0"/>
    </tripinfo>
    <tripinfo id="L0-HDV-9" depart="24.30" departLane="left-long-approaching_0" departPos="5.10" departSpeed="0.00" departDelay="0.09" arrival="91.10" arrivalLane="top-exit_1" arrivalPos="486.40" arrivalSpeed="21.62" duration="66.80" routeLength="993.12" waitingTime="0.00" waitingCount="0" stopTime="0.00" timeLoss="19.08" rerouteNo="1" devices="tripinfo_L0-HDV-9 emissions_L0-HDV-9 ssm_L0-HDV-9" vType="L0-HDV-Left-87@L0-HDV-9" speedFactor="1.30" vaporized="">
        <emissions CO_abs="4038.142056" CO2_abs="270597.192938" HC_abs="24.866160" PMx_abs="5.142806" NOx_abs="109.538249" fuel_abs="116.317856" electricity_abs="0"/>
    </tripinfo>
    <tripinfo id="L2-CV-2" depart="10.00" departLane="right-approaching_0" departPos="5.10" departSpeed="0.00" departDelay="0.00" arrival="94.40" arrivalLane="top-exit_0" arrivalPos="486.40" arrivalSpeed="16.59" duration="84.40" routeLength="979.43" waitingTime="3.90" waitingCount="1" stopTime="0.00" timeLoss="24.35" rerouteNo="0" devices="tripinfo_L2-CV-2 emissions_L2-CV-2 ssm_L2-CV-2 toc_L2-CV-2 driverstateL2-CV-2" vType="L2-CV-56@L2-CV-2" speedFactor="1.00" vaporized="">
        <emissions CO_abs="3054.543710" CO2_abs="252834.174729" HC_abs="17.548492" PMx_abs="3.427456" NOx_abs="92.198503" fuel_abs="108.683516" electricity_abs="0"/>
    </tripinfo>
    <tripinfo id="L2-CV-6" depart="30.00" departLane="left-long-approaching_0" departPos="5.10" departSpeed="0.00" departDelay="0.00" arrival="101.20" arrivalLane="bottom-exit_0" arrivalPos="489.60" arrivalSpeed="16.95" duration="71.20" routeLength="983.54" waitingTime="0.00" waitingCount="0" stopTime="0.00" timeLoss="10.70" rerouteNo="0" devices="tripinfo_L2-CV-6 emissions_L2-CV-6 ssm_L2-CV-6 toc_L2-CV-6 driverstateL2-CV-6" vType="L2-CV-Right-59@L2-CV-6" speedFactor="1.02" vaporized="">
        <emissions CO_abs="2178.740163" CO2_abs="233516.251601" HC_abs="13.299055" PMx_abs="3.022195" NOx_abs="83.698188" fuel_abs="100.379223" electricity_abs="0"/>
    </tripinfo>
    <tripinfo id="L2-AV-6" depart="30.00" departLane="right-approaching_0" departPos="5.10" departSpeed="0.00" departDelay="0.00" arrival="106.40" arrivalLane="left-exit_1" arrivalPos="431.00" arrivalSpeed="18.70" duration="76.40" routeLength="999.16" waitingTime="0.90" waitingCount="2" stopTime="0.00" timeLoss="21.15" rerouteNo="0" devices="tripinfo_L2-AV-6 emissions_L2-AV-6 ssm_L2-AV-6 toc_L2-AV-6 driverstateL2-AV-6" vType="L2-AV-79@L2-AV-6" speedFactor="1.12" vaporized="">
        <emissions CO_abs="3668.484425" CO2_abs="266210.033859" HC_abs="21.775896" PMx_abs="4.225372" NOx_abs="101.479091" fuel_abs="114.432896" electricity_abs="0"/>
    </tripinfo>
    <tripinfo id="L0-HDV-12" depart="34.20" departLane="right-approaching_0" departPos="5.10" departSpeed="0.00" departDelay="1.92" arrival="106.80" arrivalLane="bottom-exit_0" arrivalPos="489.60" arrivalSpeed="15.29" duration="72.60" routeLength="992.90" waitingTime="0.00" waitingCount="0" stopTime="0.00" timeLoss="6.96" rerouteNo="0" devices="tripinfo_L0-HDV-12 emissions_L0-HDV-12 ssm_L0-HDV-12" vType="L0-HDV-78" speedFactor="0.92" vaporized="">
        <emissions CO_abs="2302.039032" CO2_abs="193935.262320" HC_abs="14.903034" PMx_abs="3.212975" NOx_abs="76.284665" fuel_abs="83.364360" electricity_abs="0"/>
    </tripinfo>
    <tripinfo id="L4-CV-3" depart="34.30" departLane="right-approaching_0" departPos="5.10" departSpeed="0.00" departDelay="1.30" arrival="108.70" arrivalLane="left-exit_1" arrivalPos="431.00" arrivalSpeed="18.18" duration="74.40" routeLength="999.16" waitingTime="0.00" waitingCount="0" stopTime="0.00" timeLoss="17.60" rerouteNo="0" devices="tripinfo_L4-CV-3 emissions_L4-CV-3 ssm_L4-CV-3 toc_L4-CV-3 driverstateL4-CV-3" vType="L4-CV-82@L4-CV-3" speedFactor="1.09" vaporized="">
        <emissions CO_abs="3019.990515" CO2_abs="260623.759634" HC_abs="17.899723" PMx_abs="3.800563" NOx_abs="96.301997" fuel_abs="112.031551" electricity_abs="0"/>
    </tripinfo>
    <tripinfo id="L2-AV-7" depart="41.50" departLane="right-approaching_0" departPos="5.10" departSpeed="0.00" departDelay="6.50" arrival="112.20" arrivalLane="bottom-exit_0" arrivalPos="489.60" arrivalSpeed="17.75" duration="70.70" routeLength="992.90" waitingTime="0.00" waitingCount="0" stopTime="0.00" timeLoss="13.80" rerouteNo="0" devices="tripinfo_L2-AV-7 emissions_L2-AV-7 ssm_L2-AV-7 toc_L2-AV-7 driverstateL2-AV-7" vType="L2-AV-47@L2-AV-7" speedFactor="1.07" vaporized="">
        <emissions CO_abs="2597.900327" CO2_abs="217045.996413" HC_abs="15.744072" PMx_abs="3.392765" NOx_abs="82.879387" fuel_abs="93.298923" electricity_abs="0"/>
    </tripinfo>
    <tripinfo id="L0-HDV-16" depart="43.10" departLane="left-long-approaching_0" departPos="5.10" departSpeed="0.00" departDelay="0.06" arrival="116.80" arrivalLane="top-exit_0" arrivalPos="486.40" arrivalSpeed="14.76" duration="73.70" routeLength="993.12" waitingTime="0.00" waitingCount="0" stopTime="0.00" timeLoss="3.68" rerouteNo="1" devices="tripinfo_L0-HDV-16 emissions_L0-HDV-16 ssm_L0-HDV-16" vType="L0-HDV-Left-58@L0-HDV-16" speedFactor="0.89" vaporized="">
        <emissions CO_abs="1632.843151" CO2_abs="162407.582201" HC_abs="10.911421" PMx_abs="2.382675" NOx_abs="61.586755" fuel_abs="69.812193" electricity_abs="0"/>
    </tripinfo>
    <tripinfo id="L2-CV-9" depart="45.00" departLane="left-long-approaching_0" departPos="5.10" departSpeed="0.00" departDelay="0.00" arrival="117.80" arrivalLane="top-exit_1" arrivalPos="486.40" arrivalSpeed="16.72" duration="72.80" routeLength="993.12" waitingTime="0.00" waitingCount="0" stopTime="0.00" timeLoss="10.88" rerouteNo="1" devices="tripinfo_L2-CV-9 emissions_L2-CV-9 ssm_L2-CV-9 toc_L2-CV-9 driverstateL2-CV-9" vType="L2-CV-Left-64@L2-CV-9" speedFactor="1.00" vaporized="">
        <emissions CO_abs="2622.046275" CO2_abs="230869.469416" HC_abs="16.291955" PMx_abs="3.510669" NOx_abs="87.786001" fuel_abs="99.241090" electricity_abs="0"/>
    </tripinfo>
    <tripinfo id="L4-AV-3" depart="37.90" departLane="right-approaching_0" departPos="5.10" departSpeed="0.00" departDelay="4.90" arrival="118.30" arrivalLane="top-exit_0" arrivalPos="486.40" arrivalSpeed="13.76" duration="80.40" routeLength="979.43" waitingTime="0.00" waitingCount="0" stopTime="0.00" timeLoss="8.04" rerouteNo="0" devices="tripinfo_L4-AV-3 emissions_L4-AV-3 ssm_L4-AV-3 toc_L4-AV-3 driverstateL4-AV-3" vType="L4-AV-2@L4-AV-3" speedFactor="0.83" vaporized="">
        <emissions CO_abs="1870.886576" CO2_abs="223549.468348" HC_abs="12.098962" PMx_abs="2.280840" NOx_abs="77.569243" fuel_abs="96.095606" electricity_abs="0"/>
    </tripinfo>
    <tripinfo id="L4-CV-5" depart="57.20" departLane="right-approaching_0" departPos="5.10" departSpeed="0.00" departDelay="2.20" arrival="123.10" arrivalLane="bottom-exit_0" arrivalPos="489.60" arrivalSpeed="17.45" duration="65.90" routeLength="992.90" waitingTime="0.00" waitingCount="0" stopTime="0.00" timeLoss="8.11" rerouteNo="0" devices="tripinfo_L4-CV-5 emissions_L4-CV-5 ssm_L4-CV-5 toc_L4-CV-5 driverstateL4-CV-5" vType="L4-CV-23@L4-CV-5" speedFactor="1.05" vaporized="">
        <emissions CO_abs="1788.212421" CO2_abs="230152.923097" HC_abs="11.405748" PMx_abs="2.983634" NOx_abs="81.464703" fuel_abs="98.933247" electricity_abs="0"/>
    </tripinfo>
    <tripinfo id="L2-CV-12" depart="60.50" departLane="right-approaching_0" departPos="5.10" departSpeed="0.00" departDelay="0.50" arrival="130.30" arrivalLane="bottom-exit_0" arrivalPos="489.60" arrivalSpeed="17.06" duration="69.80" routeLength="992.90" waitingTime="0.00" waitingCount="0" stopTime="0.00" timeLoss="10.64" rerouteNo="0" devices="tripinfo_L2-CV-12 emissions_L2-CV-12 ssm_L2-CV-12 toc_L2-CV-12 driverstateL2-CV-12" vType="L2-CV-0@L2-CV-12" speedFactor="1.02" vaporized="">
        <emissions CO_abs="2000.752575" CO2_abs="233697.218633" HC_abs="12.505219" PMx_abs="2.947688" NOx_abs="82.756437" fuel_abs="100.457036" electricity_abs="0"/>
    </tripinfo>
    <tripinfo id="L0-HDV-5" depart="18.50" departLane="top-approaching_0" departPos="5.10" departSpeed="0.00" departDelay="5.05" arrival="149.00" arrivalLane="bottom-exit_1" arrivalPos="489.60" arrivalSpeed="19.16" duration="130.50" routeLength="995.17" waitingTime="65.80" waitingCount="1" stopTime="0.00" timeLoss="78.52" rerouteNo="0" devices="tripinfo_L0-HDV-5 emissions_L0-HDV-5 ssm_L0-HDV-5" vType="L0-HDV-24" speedFactor="1.15" vaporized="">
        <emissions CO_abs="13641.206588" CO2_abs="384169.638637" HC_abs="70.589930" PMx_abs="8.068185" NOx_abs="162.354769" fuel_abs="165.142950" electricity_abs="0"/>
    </tripinfo>
    <tripinfo id="L0-HDV-24" depart="64.60" departLane="bottom-approaching_0" departPos="5.10" departSpeed="0.00" departDelay="0.04" arrival="150.80" arrivalLane="right-exit_0" arrivalPos="486.40" arrivalSpeed="16.39" duration="86.20" routeLength="979.93" waitingTime="16.90" waitingCount="1" stopTime="0.00" timeLoss="26.39" rerouteNo="0" devices="tripinfo_L0-HDV-24 emissions_L0-HDV-24 ssm_L0-HDV-24" vType="L0-HDV-27" speedFactor="1.00" vaporized="">
        <emissions CO_abs="6741.355851" CO2_abs="316390.863055" HC_abs="38.156368" PMx_abs="6.428306" NOx_abs="133.402811" fuel_abs="136.003345" electricity_abs="0"/>
    </tripinfo>
    <tripinfo id="L4-AV-1" depart="14.60" departLane="top-approaching_0" departPos="5.10" departSpeed="0.00" departDelay="3.60" arrival="152.50" arrivalLane="left-exit_1" arrivalPos="431.00" arrivalSpeed="20.01" duration="137.90" routeLength="986.28" waitingTime="65.40" waitingCount="1" stopTime="0.00" timeLoss="86.43" rerouteNo="0" devices="tripinfo_L4-AV-1 emissions_L4-AV-1 ssm_L4-AV-1 toc_L4-AV-1 driverstateL4-AV-1" vType="L4-AV-0@L4-AV-1" speedFactor="1.20" vaporized="">
        <emissions CO_abs="14543.203401" CO2_abs="450442.994635" HC_abs="75.990240" PMx_abs="8.948274" NOx_abs="185.941443" fuel_abs="193.631500" electricity_abs="0"/>
    </tripinfo>
    <tripinfo id="L2-AV-1" depart="5.00" departLane="bottom-approaching_0" departPos="5.10" departSpeed="0.00" departDelay="0.00" arrival="155.50" arrivalLane="top-exit_0" arrivalPos="486.40" arrivalSpeed="16.85" duration="150.50" routeLength="995.17" waitingTime="71.00" waitingCount="1" stopTime="0.00" timeLoss="91.38" rerouteNo="0" devices="tripinfo_L2-AV-1 emissions_L2-AV-1 ssm_L2-AV-1 toc_L2-AV-1 driverstateL2-AV-1" vType="L2-AV-32@L2-AV-1" speedFactor="1.01" vaporized="">
        <emissions CO_abs="2661.358870" CO2_abs="195149.534224" HC_abs="15.247958" PMx_abs="2.989566" NOx_abs="74.189303" fuel_abs="83.886848" electricity_abs="0"/>
    </tripinfo>
    <tripinfo id="L2-AV-3" depart="18.60" departLane="top-approaching_0" departPos="5.10" departSpeed="0.00" departDelay="3.60" arrival="156.60" arrivalLane="bottom-exit_0" arrivalPos="489.60" arrivalSpeed="16.83" duration="138.00" routeLength="995.17" waitingTime="0.00" waitingCount="0" stopTime="0.00" timeLoss="78.77" rerouteNo="0" devices="tripinfo_L2-AV-3 emissions_L2-AV-3 ssm_L2-AV-3 toc_L2-AV-3 driverstateL2-AV-3" vType="L2-AV-21@L2-AV-3" speedFactor="1.01" vaporized="">
        <emissions CO_abs="3119.466455" CO2_abs="245773.488594" HC_abs="17.705711" PMx_abs="3.419075" NOx_abs="90.368079" fuel_abs="105.648367" electricity_abs="0"/>
    </tripinfo>
    <tripinfo id="L4-AV-0" depart="0.00" departLane="bottom-approaching_0" departPos="5.10" departSpeed="0.00" departDelay="0.00" arrival="158.10" arrivalLane="top-exit_0" arrivalPos="486.40" arrivalSpeed="13.99" duration="158.10" routeLength="995.17" waitingTime="75.20" waitingCount="1" stopTime="0.00" timeLoss="86.88" rerouteNo="0" devices="tripinfo_L4-AV-0 emissions_L4-AV-0 ssm_L4-AV-0 toc_L4-AV-0 driverstateL4-AV-0" vType="L4-AV-74@L4-AV-0" speedFactor="0.84" vaporized="">
        <emissions CO_abs="14526.928366" CO2_abs="428783.567296" HC_abs="74.279995" PMx_abs="7.480558" NOx_abs="171.800408" fuel_abs="184.322621" electricity_abs="0"/>
    </tripinfo>
    <tripinfo id="L0-HDV-20" depart="54.00" departLane="top-approaching_0" departPos="5.10" departSpeed="0.00" departDelay="0.20" arrival="158.50" arrivalLane="left-exit_0" arrivalPos="431.00" arrivalSpeed="15.95" duration="104.50" routeLength="986.28" waitingTime="22.80" waitingCount="1" stopTime="0.00" timeLoss="40.17" rerouteNo="0" devices="tripinfo_L0-HDV-20 emissions_L0-HDV-20 ssm_L0-HDV-20" vType="L0-HDV-86" speedFactor="0.96" vaporized="">
        <emissions CO_abs="6996.723227" CO2_abs="275616.381576" HC_abs="38.046605" PMx_abs="4.909998" NOx_abs="111.329722" fuel_abs="118.478114" electricity_abs="0"/>
    </tripinfo>
    <tripinfo id="L0-HDV-18" depart="48.50" departLane="bottom-approaching_0" departPos="5.10" departSpeed="0.00" departDelay="0.08" arrival="159.20" arrivalLane="top-exit_1" arrivalPos="486.40" arrivalSpeed="19.85" duration="110.70" routeLength="995.17" waitingTime="32.70" waitingCount="1" stopTime="0.00" timeLoss="60.73" rerouteNo="0" devices="tripinfo_L0-HDV-18 emissions_L0-HDV-18 ssm_L0-HDV-18" vType="L0-HDV-23" speedFactor="1.20" vaporized="">
        <emissions CO_abs="7102.933681" CO2_abs="319016.652523" HC_abs="39.851737" PMx_abs="5.986258" NOx_abs="130.227364" fuel_abs="137.133209" electricity_abs="0"/>
    </tripinfo>
    <tripinfo id="L0-HDV-13" depart="35.00" departLane="bottom-approaching_0" departPos="5.10" departSpeed="0.00" departDelay="0.03" arrival="160.90" arrivalLane="top-exit_0" arrivalPos="486.40" arrivalSpeed="15.76" duration="125.90" routeLength="995.17" waitingTime="42.10" waitingCount="1" stopTime="0.00" timeLoss="62.77" rerouteNo="0" devices="tripinfo_L0-HDV-13 emissions_L0-HDV-13 ssm_L0-HDV-13" vType="L0-HDV-23" speedFactor="0.95" vaporized="">
        <emissions CO_abs="7164.447293" CO2_abs="294794.663876" HC_abs="39.439097" PMx_abs="5.346477" NOx_abs="120.040558" fuel_abs="126.721784" electricity_abs="0"/>
    </tripinfo>
    <tripinfo id="L2-CV-13" depart="67.10" departLane="bottom-approaching_0" departPos="5.10" departSpeed="0.00" departDelay="2.10" arrival="161.90" arrivalLane="top-exit_1" arrivalPos="486.40" arrivalSpeed="18.04" duration="94.80" routeLength="995.17" waitingTime="15.50" waitingCount="2" stopTime="0.00" timeLoss="39.56" rerouteNo="0" devices="tripinfo_L2-CV-13 emissions_L2-CV-13 ssm_L2-CV-13 toc_L2-CV-13 driverstateL2-CV-13" vType="L2-CV-48@L2-CV-13" speedFactor="1.08" vaporized="">
        <emissions CO_abs="4412.857360" CO2_abs="280124.190046" HC_abs="24.924804" PMx_abs="4.356277" NOx_abs="105.778762" fuel_abs="120.414591" electricity_abs="0"/>
    </tripinfo>
    <tripinfo id="L2-CV-5" depart="28.40" departLane="top-approaching_0" departPos="5.10" departSpeed="0.00" departDelay="3.40" arrival="162.60" arrivalLane="bottom-exit_0" arrivalPos="489.60" arrivalSpeed="14.25" duration="134.20" routeLength="995.17" waitingTime="0.00" waitingCount="0" stopTime="0.00" timeLoss="64.32" rerouteNo="0" devices="tripinfo_L2-CV-5 emissions_L2-CV-5 ssm_L2-CV-5 toc_L2-CV-5 driverstateL2-CV-5" vType="L2-CV-58@L2-CV-5" speedFactor="0.85" vaporized="">
        <emissions CO_abs="2810.072641" CO2_abs="241738.164503" HC_abs="16.670245" PMx_abs="2.816096" NOx_abs="86.364777" fuel_abs="103.914359" electricity_abs="0"/>
    </tripinfo>
    <tripinfo id="L2-AV-17" depart="85.80" departLane="bottom-approaching_0" departPos="5.10" departSpeed="0.00" departDelay="0.80" arrival="164.30" arrivalLane="top-exit_1" arrivalPos="486.40" arrivalSpeed="19.62" duration="78.50" routeLength="995.17" waitingTime="0.00" waitingCount="0" stopTime="0.00" timeLoss="27.70" rerouteNo="0" devices="tripinfo_L2-AV-17 emissions_L2-AV-17 ssm_L2-AV-17 toc_L2-AV-17 driverstateL2-AV-17" vType="L2-AV-30@L2-AV-17" speedFactor="1.18" vaporized="">
        <emissions CO_abs="3578.747242" CO2_abs="228426.026768" HC_abs="21.072897" PMx_abs="3.854803" NOx_abs="89.642916" fuel_abs="98.191067" electricity_abs="0"/>
    </tripinfo>
    <tripinfo id="L0-HDV-10" depart="31.90" departLane="top-approaching_0" departPos="5.10" departSpeed="0.00" departDelay="5.00" arrival="165.20" arrivalLane="bottom-exit_1" arrivalPos="489.60" arrivalSpeed="14.45" duration="133.30" routeLength="995.17" waitingTime="0.00" waitingCount="0" stopTime="0.00" timeLoss="64.68" rerouteNo="0" devices="tripinfo_L0-HDV-10 emissions_L0-HDV-10 ssm_L0-HDV-10" vType="L0-HDV-92" speedFactor="0.87" vaporized="">
        <emissions CO_abs="5993.317229" CO2_abs="253051.153274" HC_abs="33.088869" PMx_abs="4.326957" NOx_abs="101.641369" fuel_abs="108.777963" electricity_abs="0"/>
    </tripinfo>
    <tripinfo id="L4-AV-5" depart="57.80" departLane="top-approaching_0" departPos="5.10" departSpeed="0.00" departDelay="2.80" arrival="165.30" arrivalLane="left-exit_0" arrivalPos="431.00" arrivalSpeed="14.55" duration="107.50" routeLength="986.28" waitingTime="0.10" waitingCount="1" stopTime="0.00" timeLoss="36.68" rerouteNo="0" devices="tripinfo_L4-AV-5 emissions_L4-AV-5 ssm_L4-AV-5 toc_L4-AV-5 driverstateL4-AV-5" vType="L4-AV-6@L4-AV-5" speedFactor="0.87" vaporized="">
        <emissions CO_abs="3231.223220" CO2_abs="242920.569636" HC_abs="18.547747" PMx_abs="2.970640" NOx_abs="88.116000" fuel_abs="104.422709" electricity_abs="0"/>
    </tripinfo>
    <tripinfo id="L4-AV-8" depart="88.00" departLane="bottom-approaching_0" departPos="5.10" departSpeed="0.00" departDelay="0.00" arrival="165.50" arrivalLane="top-exit_1" arrivalPos="486.40" arrivalSpeed="19.65" duration="77.50" routeLength="995.17" waitingTime="0.40" waitingCount="1" stopTime="0.00" timeLoss="26.80" rerouteNo="0" devices="tripinfo_L4-AV-8 emissions_L4-AV-8 ssm_L4-AV-8 toc_L4-AV-8 driverstateL4-AV-8" vType="L4-AV-21@L4-AV-8" speedFactor="1.18" vaporized="">
        <emissions CO_abs="3885.575037" CO2_abs="247116.156608" HC_abs="22.926588" PMx_abs="4.216686" NOx_abs="97.033723" fuel_abs="106.225171" electricity_abs="0"/>
    </tripinfo>
    <tripinfo id="L0-HDV-31" depart="83.40" departLane="bottom-approaching_0" departPos="5.10" departSpeed="0.00" departDelay="0.01" arrival="165.60" arrivalLane="top-exit_0" arrivalPos="486.40" arrivalSpeed="15.83" duration="82.20" routeLength="995.17" waitingTime="2.80" waitingCount="1" stopTime="0.00" timeLoss="19.73" rerouteNo="0" devices="tripinfo_L0-HDV-31 emissions_L0-HDV-31 ssm_L0-HDV-31" vType="L0-HDV-96" speedFactor="0.96" vaporized="">
        <emissions CO_abs="4560.530823" CO2_abs="267697.337141" HC_abs="27.040902" PMx_abs="5.009138" NOx_abs="110.033293" fuel_abs="115.071699" electricity_abs="0"/>
    </tripinfo>
    <tripinfo id="L0-HDV-26" depart="70.00" departLane="top-approaching_0" departPos="5.10" departSpeed="0.00" departDelay="0.06" arrival="165.90" arrivalLane="left-exit_1" arrivalPos="431.00" arrivalSpeed="15.19" duration="95.90" routeLength="986.28" waitingTime="0.00" waitingCount="0" stopTime="0.00" timeLoss="28.24" rerouteNo="0" devices="tripinfo_L0-HDV-26 emissions_L0-HDV-26 ssm_L0-HDV-26" vType="L0-HDV-64" speedFactor="0.91" vaporized="">
        <emissions CO_abs="3596.247604" CO2_abs="213787.830505" HC_abs="21.094827" PMx_abs="3.364365" NOx_abs="83.352121" fuel_abs="91.899237" electricity_abs="0"/>
    </tripinfo>
    <tripinfo id="L0-HDV-11" depart="32.00" departLane="top-approaching_0" departPos="5.10" departSpeed="0.00" departDelay="2.41" arrival="166.30" arrivalLane="bottom-exit_1" arrivalPos="489.60" arrivalSpeed="15.71" duration="134.30" routeLength="995.17" waitingTime="0.00" waitingCount="0" stopTime="0.00" timeLoss="75.46" rerouteNo="0" devices="tripinfo_L0-HDV-11 emissions_L0-HDV-11 ssm_L0-HDV-11" vType="L0-HDV-8" speedFactor="1.02" vaporized="">
        <emissions CO_abs="4290.194958" CO2_abs="223562.577168" HC_abs="24.397864" PMx_abs="3.475762" NOx_abs="87.123940" fuel_abs="96.101513" electricity_abs="0"/>
    </tripinfo>
    <tripinfo id="L2-CV-10" depart="50.00" departLane="top-approaching_0" departPos="5.10" departSpeed="0.00" departDelay="0.00" arrival="167.00" arrivalLane="bottom-exit_0" arrivalPos="489.60" arrivalSpeed="16.60" duration="117.00" routeLength="995.17" waitingTime="0.10" waitingCount="1" stopTime="0.00" timeLoss="56.94" rerouteNo="0" devices="tripinfo_L2-CV-10 emissions_L2-CV-10 ssm_L2-CV-10 toc_L2-CV-10 driverstateL2-CV-10" vType="L2-CV-88@L2-CV-10" speedFactor="1.00" vaporized="">
        <emissions CO_abs="3660.561421" CO2_abs="253046.014956" HC_abs="21.324297" PMx_abs="3.533386" NOx_abs="94.318376" fuel_abs="108.774992" electricity_abs="0"/>
    </tripinfo>
    <tripinfo id="L2-CV-11" depart="61.90" departLane="top-approaching_0" departPos="5.10" departSpeed="0.00" departDelay="6.90" arrival="168.00" arrivalLane="bottom-exit_1" arrivalPos="489.60" arrivalSpeed="18.04" duration="106.10" routeLength="995.17" waitingTime="6.00" waitingCount="60" stopTime="0.00" timeLoss="53.80" rerouteNo="0" devices="tripinfo_L2-CV-11 emissions_L2-CV-11 ssm_L2-CV-11 toc_L2-CV-11 driverstateL2-CV-11" vType="L2-CV-34@L2-CV-11" speedFactor="1.14" vaporized="">
        <emissions CO_abs="6733.272367" CO2_abs="308389.001584" HC_abs="37.463978" PMx_abs="5.414092" NOx_abs="123.160161" fuel_abs="132.565198" electricity_abs="0"/>
    </tripinfo>
    <tripinfo id="L4-AV-6" depart="66.00" departLane="top-approaching_0" departPos="5.10" departSpeed="0.00" departDelay="0.00" arrival="169.50" arrivalLane="bottom-exit_0" arrivalPos="489.60" arrivalSpeed="15.82" duration="103.50" routeLength="995.17" waitingTime="0.00" waitingCount="0" stopTime="0.00" timeLoss="40.45" rerouteNo="0" devices="tripinfo_L4-AV-6 emissions_L4-AV-6 ssm_L4-AV-6 toc_L4-AV-6 driverstateL4-AV-6" vType="L4-AV-56@L4-AV-6" speedFactor="0.95" vaporized="">
        <emissions CO_abs="3949.668109" CO2_abs="243082.436808" HC_abs="21.988554" PMx_abs="3.442847" NOx_abs="91.041329" fuel_abs="104.492220" electricity_abs="0"/>
    </tripinfo>
    <tripinfo id="L2-CV-18" depart="90.90" departLane="bottom-approaching_0" departPos="5.10" departSpeed="0.00" departDelay="0.90" arrival="169.50" arrivalLane="top-exit_0" arrivalPos="486.40" arrivalSpeed="16.45" duration="78.60" routeLength="995.17" waitingTime="0.00" waitingCount="0" stopTime="0.00" timeLoss="18.02" rerouteNo="0" devices="tripinfo_L2-CV-18 emissions_L2-CV-18 ssm_L2-CV-18 toc_L2-CV-18 driverstateL2-CV-18" vType="L2-CV-48@L2-CV-18" speedFactor="0.99" vaporized="">
        <emissions CO_abs="2758.273618" CO2_abs="252824.473758" HC_abs="16.166236" PMx_abs="3.312947" NOx_abs="91.340354" fuel_abs="108.679276" electricity_abs="0"/>
    </tripinfo>
    <tripinfo id="L0-HDV-35" depart="97.50" departLane="bottom-approaching_0" departPos="5.10" departSpeed="0.00" departDelay="3.35" arrival="169.60" arrivalLane="top-exit_1" arrivalPos="486.40" arrivalSpeed="18.40" duration="72.10" routeLength="995.17" waitingTime="0.00" waitingCount="0" stopTime="0.00" timeLoss="18.09" rerouteNo="0" devices="tripinfo_L0-HDV-35 emissions_L0-HDV-35 ssm_L0-HDV-35" vType="L0-HDV-90" speedFactor="1.11" vaporized="">
        <emissions CO_abs="2985.882029" CO2_abs="223796.851548" HC_abs="18.675806" PMx_abs="3.826357" NOx_abs="88.309626" fuel_abs="96.200706" electricity_abs="0"/>
    </tripinfo>
    <tripinfo id="L0-HDV-29" depart="78.10" departLane="top-approaching_0" departPos="5.10" departSpeed="0.00" departDelay="0.09" arrival="170.40" arrivalLane="bottom-exit_1" arrivalPos="489.60" arrivalSpeed="17.40" duration="92.30" routeLength="995.17" waitingTime="0.00" waitingCount="0" stopTime="0.00" timeLoss="35.05" rerouteNo="0" devices="tripinfo_L0-HDV-29 emissions_L0-HDV-29 ssm_L0-HDV-29" vType="L0-HDV-63" speedFactor="1.04" vaporized="">
        <emissions CO_abs="3822.956741" CO2_abs="228336.378187" HC_abs="22.553608" PMx_abs="3.896015" NOx_abs="90.725498" fuel_abs="98.152660" electricity_abs="0"/>
    </tripinfo>
    <tripinfo id="L0-HDV-34" depart="93.70" departLane="bottom-approaching_0" departPos="5.10" departSpeed="0.00" departDelay="2.24" arrival="171.60" arrivalLane="top-exit_1" arrivalPos="486.40" arrivalSpeed="18.80" duration="77.90" routeLength="995.17" waitingTime="0.00" waitingCount="0" stopTime="0.00" timeLoss="24.91" rerouteNo="0" devices="tripinfo_L0-HDV-34 emissions_L0-HDV-34 ssm_L0-HDV-34" vType="L0-HDV-86" speedFactor="1.13" vaporized="">
        <emissions CO_abs="2979.913802" CO2_abs="234516.337281" HC_abs="18.805054" PMx_abs="3.623577" NOx_abs="89.817496" fuel_abs="100.809037" electricity_abs="0"/>
    </tripinfo>