<?xml version="1.0" encoding="UTF-8"?>

<!-- generated on 03/29/21 00:12:36 by Eclipse SUMO sumo Version 1.8.0
<configuration xmlns:xsi="http://www.w3.org/2001/XMLSchema-instance" xsi:noNamespaceSchemaLocation="http://sumo.dlr.de/xsd/sumoConfiguration.xsd">

    <input>
        <net-file value="Roadworks\RealTMSPenetration2\../RoadworksIntersection.net.xml"/>
        <route-files value="Roadworks\RealTMSPenetration2\Route-Files/L4-CV-Route.rou.xml,Roadworks\RealTMSPenetration2\Route-Files/L4-AV-Route.rou.xml,Roadworks\RealTMSPenetration2\Route-Files/L2-CV-Route.rou.xml,Roadworks\RealTMSPenetration2\Route-Files/L2-AV-Route.rou.xml,Roadworks\RealTMSPenetration2\Route-Files/L0-HDV-Route.rou.xml"/>
        <additional-files value="Roadworks\RealTMSPenetration2\../Additional-Files/Roadworks-Detectors.add.xml,Roadworks\RealTMSPenetration2\../Additional-Files/Roadworks-Rerouters.add.xml,Roadworks\RealTMSPenetration2\../Additional-Files/Roadworks-Traffic-lights.add.xml,Roadworks\RealTMSPenetration2\../Additional-Files/Roadworks-Traffic-Signs.add.xml,Roadworks\RealTMSPenetration2\PreparingVehicleModels/Vehicle-Models/L4-CV.add.xml,Roadworks\RealTMSPenetration2\PreparingVehicleModels/Vehicle-Models/L4-CV-Left.add.xml,Roadworks\RealTMSPenetration2\PreparingVehicleModels/Vehicle-Models/L4-CV-Right.add.xml,Roadworks\RealTMSPenetration2\PreparingVehicleModels/Vehicle-Models/L4-AV.add.xml,Roadworks\RealTMSPenetration2\PreparingVehicleModels/Vehicle-Models/L4-AV-Left.add.xml,Roadworks\RealTMSPenetration2\PreparingVehicleModels/Vehicle-Models/L4-AV-Right.add.xml,Roadworks\RealTMSPenetration2\PreparingVehicleModels/Vehicle-Models/L2-CV.add.xml,Roadworks\RealTMSPenetration2\PreparingVehicleModels/Vehicle-Models/L2-CV-Left.add.xml,Roadworks\RealTMSPenetration2\PreparingVehicleModels/Vehicle-Models/L2-CV-Right.add.xml,Roadworks\RealTMSPenetration2\PreparingVehicleModels/Vehicle-Models/L2-AV.add.xml,Roadworks\RealTMSPenetration2\PreparingVehicleModels/Vehicle-Models/L2-AV-Left.add.xml,Roadworks\RealTMSPenetration2\PreparingVehicleModels/Vehicle-Models/L2-AV-Right.add.xml,Roadworks\RealTMSPenetration2\PreparingVehicleModels/Vehicle-Models/L0-HDV.add.xml,Roadworks\RealTMSPenetration2\PreparingVehicleModels/Vehicle-Models/L0-HDV-Left.add.xml,Roadworks\RealTMSPenetration2\PreparingVehicleModels/Vehicle-Models/L0-HDV-Straight.add.xml"/>
    </input>

    <output>
        <tripinfo-output value="Roadworks\RealTMSPenetration2\Output-Files\TripInfo.xml"/>
    </output>

    <time>
        <begin value="0"/>
        <step-length value="0.1"/>
    </time>

    <processing>
        <ignore-route-errors value="true"/>
        <waiting-time-memory value="300"/>
        <default.action-step-length value="0.1"/>
    </processing>

    <report>
        <no-warnings value="true"/>
    </report>

    <emissions>
        <device.emissions.probability value="1"/>
    </emissions>

    <traci_server>
        <remote-port value="49968"/>
    </traci_server>

    <gui_only>
        <quit-on-end value="true"/>
        <start value="true"/>
        <tracker-interval value="0.1"/>
    </gui_only>

</configuration>
-->

<tripinfos xmlns:xsi="http://www.w3.org/2001/XMLSchema-instance" xsi:noNamespaceSchemaLocation="http://sumo.dlr.de/xsd/tripinfo_file.xsd">
    <tripinfo id="L4-CV-2" depart="22.00" departLane="right-approaching_0" departPos="5.10" departSpeed="0.00" departDelay="0.00" arrival="90.00" arrivalLane="bottom-exit_1" arrivalPos="489.60" arrivalSpeed="18.72" duration="68.00" routeLength="992.90" waitingTime="0.00" waitingCount="0" stopTime="0.00" timeLoss="14.09" rerouteNo="0" devices="tripinfo_L4-CV-2 emissions_L4-CV-2 ssm_L4-CV-2 toc_L4-CV-2 driverstateL4-CV-2" vType="L4-CV-15@L4-CV-2" speedFactor="1.12" vaporized="">
        <emissions CO_abs="2456.761050" CO2_abs="235861.834164" HC_abs="15.520528" PMx_abs="3.592016" NOx_abs="87.860447" fuel_abs="101.387068" electricity_abs="0"/>
    </tripinfo>
    <tripinfo id="L2-CV-3" depart="15.00" departLane="right-approaching_0" departPos="5.10" departSpeed="0.00" departDelay="0.00" arrival="90.20" arrivalLane="top-exit_0" arrivalPos="486.40" arrivalSpeed="14.71" duration="75.20" routeLength="979.43" waitingTime="0.00" waitingCount="0" stopTime="0.00" timeLoss="7.52" rerouteNo="0" devices="tripinfo_L2-CV-3 emissions_L2-CV-3 ssm_L2-CV-3 toc_L2-CV-3 driverstateL2-CV-3" vType="L2-CV-20@L2-CV-3" speedFactor="0.88" vaporized="">
        <emissions CO_abs="1831.795996" CO2_abs="221963.332168" HC_abs="11.131373" PMx_abs="2.420194" NOx_abs="77.294472" fuel_abs="95.413449" electricity_abs="0"/>
    </tripinfo>
    <tripinfo id="L0-HDV-7" depart="18.90" departLane="right-approaching_0" departPos="5.10" departSpeed="0.00" departDelay="0.07" arrival="91.30" arrivalLane="bottom-exit_0" arrivalPos="489.60" arrivalSpeed="15.29" duration="72.40" routeLength="992.90" waitingTime="0.00" waitingCount="0" stopTime="0.00" timeLoss="6.37" rerouteNo="0" devices="tripinfo_L0-HDV-7 emissions_L0-HDV-7 ssm_L0-HDV-7" vType="L0-HDV-70" speedFactor="0.92" vaporized="">
        <emissions CO_abs="1843.668204" CO2_abs="170902.795533" HC_abs="11.957793" PMx_abs="2.525524" NOx_abs="64.771504" fuel_abs="73.464006" electricity_abs="0"/>
    </tripinfo>
    <tripinfo id="L0-HDV-9" depart="25.50" departLane="right-approaching_0" departPos="5.10" departSpeed="0.00" departDelay="1.29" arrival="98.70" arrivalLane="top-exit_0" arrivalPos="486.40" arrivalSpeed="15.90" duration="73.20" routeLength="979.43" waitingTime="0.00" waitingCount="0" stopTime="0.00" timeLoss="10.76" rerouteNo="0" devices="tripinfo_L0-HDV-9 emissions_L0-HDV-9 ssm_L0-HDV-9" vType="L0-HDV-81" speedFactor="0.96" vaporized="">
        <emissions CO_abs="2252.506781" CO2_abs="187824.795341" HC_abs="14.295242" PMx_abs="2.814246" NOx_abs="71.538573" fuel_abs="80.738217" electricity_abs="0"/>
    </tripinfo>
    <tripinfo id="L0-HDV-10" depart="29.30" departLane="right-approaching_0" departPos="5.10" departSpeed="0.00" departDelay="2.40" arrival="100.60" arrivalLane="top-exit_0" arrivalPos="486.40" arrivalSpeed="17.14" duration="71.30" routeLength="979.43" waitingTime="0.00" waitingCount="0" stopTime="0.00" timeLoss="13.78" rerouteNo="0" devices="tripinfo_L0-HDV-10 emissions_L0-HDV-10 ssm_L0-HDV-10" vType="L0-HDV-91" speedFactor="1.04" vaporized="">
        <emissions CO_abs="3104.037838" CO2_abs="238509.361057" HC_abs="19.737064" PMx_abs="4.252155" NOx_abs="96.175213" fuel_abs="102.524586" electricity_abs="0"/>
    </tripinfo>
    <tripinfo id="L0-HDV-22" depart="59.20" departLane="right-approaching_0" departPos="5.10" departSpeed="0.00" departDelay="0.02" arrival="108.40" arrivalLane="bottom-exit_1" arrivalPos="489.60" arrivalSpeed="22.58" duration="49.20" routeLength="992.90" waitingTime="0.00" waitingCount="0" stopTime="0.00" timeLoss="4.47" rerouteNo="0" devices="tripinfo_L0-HDV-22 emissions_L0-HDV-22 ssm_L0-HDV-22" vType="L0-HDV-1" speedFactor="1.36" vaporized="">
        <emissions CO_abs="2583.327245" CO2_abs="208688.369451" HC_abs="16.853964" PMx_abs="4.175058" NOx_abs="83.631725" fuel_abs="89.705426" electricity_abs="0"/>
    </tripinfo>
    <tripinfo id="L2-AV-7" depart="35.00" departLane="right-approaching_0" departPos="5.10" departSpeed="0.00" departDelay="0.00" arrival="109.90" arrivalLane="bottom-exit_0" arrivalPos="489.60" arrivalSpeed="15.69" duration="74.90" routeLength="992.90" waitingTime="0.00" waitingCount="0" stopTime="0.00" timeLoss="10.62" rerouteNo="0" devices="tripinfo_L2-AV-7 emissions_L2-AV-7 ssm_L2-AV-7 toc_L2-AV-7 driverstateL2-AV-7" vType="L2-AV-85@L2-AV-7" speedFactor="0.94" vaporized="">
        <emissions CO_abs="2203.823084" CO2_abs="235065.677022" HC_abs="12.928549" PMx_abs="2.808984" NOx_abs="83.164438" fuel_abs="101.045500" electricity_abs="0"/>
    </tripinfo>
    <tripinfo id="L0-HDV-6" depart="18.30" departLane="right-approaching_0" departPos="5.10" departSpeed="0.00" departDelay="2.16" arrival="115.60" arrivalLane="left-exit_0" arrivalPos="831.00" arrivalSpeed="15.17" duration="97.30" routeLength="1399.16" waitingTime="0.00" waitingCount="0" stopTime="0.00" timeLoss="3.22" rerouteNo="0" devices="tripinfo_L0-HDV-6 emissions_L0-HDV-6 ssm_L0-HDV-6" vType="L0-HDV-69" speedFactor="0.91" vaporized="">
        <emissions CO_abs="1841.513762" CO2_abs="219349.638977" HC_abs="13.143618" PMx_abs="3.166888" NOx_abs="82.142007" fuel_abs="94.289040" electricity_abs="0"/>
    </tripinfo>
    <tripinfo id="L2-AV-6" depart="32.20" departLane="right-approaching_0" departPos="5.10" departSpeed="0.00" departDelay="2.20" arrival="129.80" arrivalLane="left-exit_0" arrivalPos="831.00" arrivalSpeed="17.85" duration="97.60" routeLength="1399.16" waitingTime="1.70" waitingCount="1" stopTime="0.00" timeLoss="17.31" rerouteNo="0" devices="tripinfo_L2-AV-6 emissions_L2-AV-6 ssm_L2-AV-6 toc_L2-AV-6 driverstateL2-AV-6" vType="L2-AV-95@L2-AV-6" speedFactor="1.07" vaporized="">
        <emissions CO_abs="3435.678264" CO2_abs="275896.376714" HC_abs="20.431983" PMx_abs="4.436132" NOx_abs="105.252218" fuel_abs="118.596197" electricity_abs="0"/>
    </tripinfo>
    <tripinfo id="L2-CV-0" depart="3.70" departLane="bottom-approaching_0" departPos="5.10" departSpeed="0.00" departDelay="3.70" arrival="144.10" arrivalLane="top-exit_0" arrivalPos="486.40" arrivalSpeed="16.85" duration="140.40" routeLength="995.17" waitingTime="68.20" waitingCount="1" stopTime="0.00" timeLoss="81.29" rerouteNo="0" devices="tripinfo_L2-CV-0 emissions_L2-CV-0 ssm_L2-CV-0 toc_L2-CV-0 driverstateL2-CV-0" vType="L2-CV-32@L2-CV-0" speedFactor="1.01" vaporized="">
        <emissions CO_abs="13644.164298" CO2_abs="420987.344941" HC_abs="69.354485" PMx_abs="7.756789" NOx_abs="169.446665" fuel_abs="180.970095" electricity_abs="0"/>
    </tripinfo>
    <tripinfo id="L2-AV-3" depart="15.00" departLane="top-approaching_0" departPos="5.10" departSpeed="0.00" departDelay="0.00" arrival="144.70" arrivalLane="bottom-exit_1" arrivalPos="489.60" arrivalSpeed="19.62" duration="129.70" routeLength="995.17" waitingTime="13.30" waitingCount="1" stopTime="0.00" timeLoss="78.89" rerouteNo="0" devices="tripinfo_L2-AV-3 emissions_L2-AV-3 ssm_L2-AV-3 toc_L2-AV-3 driverstateL2-AV-3" vType="L2-AV-30@L2-AV-3" speedFactor="1.18" vaporized="">
        <emissions CO_abs="3039.762714" CO2_abs="216514.001597" HC_abs="18.080644" PMx_abs="3.613707" NOx_abs="83.804615" fuel_abs="93.070367" electricity_abs="0"/>
    </tripinfo>
    <tripinfo id="L4-AV-0" depart="3.60" departLane="bottom-approaching_0" departPos="5.10" departSpeed="0.00" departDelay="3.60" arrival="145.70" arrivalLane="top-exit_1" arrivalPos="486.40" arrivalSpeed="20.01" duration="142.10" routeLength="995.17" waitingTime="62.20" waitingCount="1" stopTime="0.00" timeLoss="92.30" rerouteNo="0" devices="tripinfo_L4-AV-0 emissions_L4-AV-0 ssm_L4-AV-0 toc_L4-AV-0 driverstateL4-AV-0" vType="L4-AV-0@L4-AV-0" speedFactor="1.20" vaporized="">
        <emissions CO_abs="3600.349421" CO2_abs="228174.364696" HC_abs="21.345595" PMx_abs="3.924790" NOx_abs="89.945925" fuel_abs="98.082835" electricity_abs="0"/>
    </tripinfo>
    <tripinfo id="L4-CV-0" depart="0.00" departLane="bottom-approaching_0" departPos="5.10" departSpeed="0.00" departDelay="0.00" arrival="146.50" arrivalLane="right-exit_0" arrivalPos="486.40" arrivalSpeed="16.26" duration="146.50" routeLength="979.93" waitingTime="69.20" waitingCount="1" stopTime="0.00" timeLoss="85.25" rerouteNo="0" devices="tripinfo_L4-CV-0 emissions_L4-CV-0 ssm_L4-CV-0 toc_L4-CV-0 driverstateL4-CV-0" vType="L4-CV-89@L4-CV-0" speedFactor="0.98" vaporized="">
        <emissions CO_abs="14207.844257" CO2_abs="425972.538811" HC_abs="72.078345" PMx_abs="7.774928" NOx_abs="171.793340" fuel_abs="183.113484" electricity_abs="0"/>
    </tripinfo>
    <tripinfo id="L4-AV-1" depart="11.00" departLane="bottom-approaching_0" departPos="5.10" departSpeed="0.00" departDelay="0.00" arrival="147.70" arrivalLane="right-exit_0" arrivalPos="486.40" arrivalSpeed="16.59" duration="136.70" routeLength="979.93" waitingTime="0.00" waitingCount="0" stopTime="0.00" timeLoss="76.68" rerouteNo="0" devices="tripinfo_L4-AV-1 emissions_L4-AV-1 ssm_L4-AV-1 toc_L4-AV-1 driverstateL4-AV-1" vType="L4-AV-56@L4-AV-1" speedFactor="1.00" vaporized="">
        <emissions CO_abs="2754.310445" CO2_abs="194563.835075" HC_abs="16.142424" PMx_abs="2.989012" NOx_abs="74.351820" fuel_abs="83.635213" electricity_abs="0"/>
    </tripinfo>
    <tripinfo id="L2-CV-6" depart="30.00" departLane="top-approaching_0" departPos="5.10" departSpeed="0.00" departDelay="0.00" arrival="149.00" arrivalLane="bottom-exit_1" arrivalPos="489.60" arrivalSpeed="17.04" duration="119.00" routeLength="995.17" waitingTime="11.80" waitingCount="1" stopTime="0.00" timeLoss="60.50" rerouteNo="0" devices="tripinfo_L2-CV-6 emissions_L2-CV-6 ssm_L2-CV-6 toc_L2-CV-6 driverstateL2-CV-6" vType="L2-CV-15@L2-CV-6" speedFactor="1.02" vaporized="">
        <emissions CO_abs="3065.788520" CO2_abs="257719.823772" HC_abs="17.852001" PMx_abs="3.562553" NOx_abs="94.263480" fuel_abs="110.783567" electricity_abs="0"/>
    </tripinfo>
    <tripinfo id="L2-CV-10" depart="50.00" departLane="bottom-approaching_0" departPos="5.10" departSpeed="0.00" departDelay="0.00" arrival="150.20" arrivalLane="right-exit_0" arrivalPos="486.40" arrivalSpeed="17.21" duration="100.20" routeLength="979.93" waitingTime="0.10" waitingCount="1" stopTime="0.00" timeLoss="42.33" rerouteNo="0" devices="tripinfo_L2-CV-10 emissions_L2-CV-10 ssm_L2-CV-10 toc_L2-CV-10 driverstateL2-CV-10" vType="L2-CV-94@L2-CV-10" speedFactor="1.03" vaporized="">
        <emissions CO_abs="3562.474581" CO2_abs="266790.241837" HC_abs="20.718872" PMx_abs="3.771696" NOx_abs="98.608712" fuel_abs="114.682828" electricity_abs="0"/>
    </tripinfo>
    <tripinfo id="L0-HDV-3" depart="8.40" departLane="top-approaching_0" departPos="5.10" departSpeed="0.00" departDelay="0.33" arrival="150.70" arrivalLane="bottom-exit_0" arrivalPos="489.60" arrivalSpeed="13.30" duration="142.30" routeLength="995.17" waitingTime="59.10" waitingCount="1" stopTime="0.00" timeLoss="67.82" rerouteNo="0" devices="tripinfo_L0-HDV-3 emissions_L0-HDV-3 ssm_L0-HDV-3" vType="L0-HDV-84" speedFactor="0.80" vaporized="">
        <emissions CO_abs="12150.983257" CO2_abs="344954.099442" HC_abs="63.363146" PMx_abs="6.848930" NOx_abs="145.254644" fuel_abs="148.285781" electricity_abs="0"/>
    </tripinfo>
    <tripinfo id="L0-HDV-25" depart="70.00" departLane="bottom-approaching_0" departPos="5.10" departSpeed="0.00" departDelay="2.75" arrival="151.60" arrivalLane="right-exit_0" arrivalPos="486.40" arrivalSpeed="18.14" duration="81.60" routeLength="979.93" waitingTime="0.00" waitingCount="0" stopTime="0.00" timeLoss="26.97" rerouteNo="0" devices="tripinfo_L0-HDV-25 emissions_L0-HDV-25 ssm_L0-HDV-25" vType="L0-HDV-45" speedFactor="1.09" vaporized="">
        <emissions CO_abs="4099.119460" CO2_abs="247957.206065" HC_abs="24.372630" PMx_abs="4.267253" NOx_abs="98.600882" fuel_abs="106.586804" electricity_abs="0"/>
    </tripinfo>
    <tripinfo id="L4-AV-3" depart="33.60" departLane="top-approaching_0" departPos="5.10" departSpeed="0.00" departDelay="0.60" arrival="152.00" arrivalLane="bottom-exit_1" arrivalPos="489.60" arrivalSpeed="15.96" duration="118.40" routeLength="995.17" waitingTime="0.00" waitingCount="0" stopTime="0.00" timeLoss="55.96" rerouteNo="0" devices="tripinfo_L4-AV-3 emissions_L4-AV-3 ssm_L4-AV-3 toc_L4-AV-3 driverstateL4-AV-3" vType="L4-AV-10@L4-AV-3" speedFactor="0.96" vaporized="">
        <emissions CO_abs="2937.126541" CO2_abs="241907.479921" HC_abs="16.660255" PMx_abs="3.176756" NOx_abs="87.850957" fuel_abs="103.986667" electricity_abs="0"/>
    </tripinfo>
    <tripinfo id="L2-CV-9" depart="45.00" departLane="top-approaching_0" departPos="5.10" departSpeed="0.00" departDelay="0.00" arrival="153.60" arrivalLane="bottom-exit_0" arrivalPos="489.60" arrivalSpeed="16.42" duration="108.60" routeLength="995.17" waitingTime="0.00" waitingCount="0" stopTime="0.00" timeLoss="47.91" rerouteNo="0" devices="tripinfo_L2-CV-9 emissions_L2-CV-9 ssm_L2-CV-9 toc_L2-CV-9 driverstateL2-CV-9" vType="L2-CV-85@L2-CV-9" speedFactor="0.98" vaporized="">
        <emissions CO_abs="3265.329844" CO2_abs="208295.873536" HC_abs="18.799166" PMx_abs="3.166350" NOx_abs="79.683235" fuel_abs="89.538379" electricity_abs="0"/>
    </tripinfo>
    <tripinfo id="L4-CV-3" depart="36.10" departLane="bottom-approaching_0" departPos="5.10" departSpeed="0.00" departDelay="3.10" arrival="155.30" arrivalLane="top-exit_1" arrivalPos="486.40" arrivalSpeed="16.52" duration="119.20" routeLength="995.17" waitingTime="0.00" waitingCount="0" stopTime="0.00" timeLoss="58.90" rerouteNo="0" devices="tripinfo_L4-CV-3 emissions_L4-CV-3 ssm_L4-CV-3 toc_L4-CV-3 driverstateL4-CV-3" vType="L4-CV-12@L4-CV-3" speedFactor="0.99" vaporized="">
        <emissions CO_abs="3277.258778" CO2_abs="260914.363713" HC_abs="19.178869" PMx_abs="3.510271" NOx_abs="95.380262" fuel_abs="112.157078" electricity_abs="0"/>
    </tripinfo>
    <tripinfo id="L2-CV-8" depart="40.00" departLane="bottom-approaching_0" departPos="5.10" departSpeed="0.00" departDelay="0.00" arrival="156.50" arrivalLane="top-exit_1" arrivalPos="486.40" arrivalSpeed="17.60" duration="116.50" routeLength="995.17" waitingTime="7.70" waitingCount="77" stopTime="0.00" timeLoss="59.87" rerouteNo="0" devices="tripinfo_L2-CV-8 emissions_L2-CV-8 ssm_L2-CV-8 toc_L2-CV-8 driverstateL2-CV-8" vType="L2-CV-19@L2-CV-8" speedFactor="1.06" vaporized="">
        <emissions CO_abs="7466.811803" CO2_abs="275364.547741" HC_abs="40.070061" PMx_abs="5.081830" NOx_abs="112.620257" fuel_abs="118.369947" electricity_abs="0"/>
    </tripinfo>
    <tripinfo id="L0-HDV-1" depart="6.70" departLane="bottom-approaching_0" departPos="5.10" departSpeed="0.00" departDelay="4.01" arrival="156.80" arrivalLane="top-exit_0" arrivalPos="486.40" arrivalSpeed="13.11" duration="150.10" routeLength="995.17" waitingTime="60.70" waitingCount="1" stopTime="0.00" timeLoss="75.35" rerouteNo="0" devices="tripinfo_L0-HDV-1 emissions_L0-HDV-1 ssm_L0-HDV-1" vType="L0-HDV-3" speedFactor="0.80" vaporized="">
        <emissions CO_abs="8437.595731" CO2_abs="322055.257816" HC_abs="45.983099" PMx_abs="6.189900" NOx_abs="134.652572" fuel_abs="138.440023" electricity_abs="0"/>
    </tripinfo>
    <tripinfo id="L0-HDV-21" depart="62.20" departLane="top-approaching_0" departPos="5.10" departSpeed="0.00" departDelay="5.71" arrival="158.50" arrivalLane="bottom-exit_0" arrivalPos="489.60" arrivalSpeed="15.94" duration="96.30" routeLength="995.17" waitingTime="0.00" waitingCount="0" stopTime="0.00" timeLoss="34.04" rerouteNo="0" devices="tripinfo_L0-HDV-21 emissions_L0-HDV-21 ssm_L0-HDV-21" vType="L0-HDV-23" speedFactor="0.96" vaporized="">
        <emissions CO_abs="4644.799273" CO2_abs="254095.776734" HC_abs="27.012268" PMx_abs="4.334441" NOx_abs="101.516469" fuel_abs="109.225900" electricity_abs="0"/>
    </tripinfo>
    <tripinfo id="L0-HDV-17" depart="45.80" departLane="bottom-approaching_0" departPos="5.10" departSpeed="0.00" departDelay="0.07" arrival="159.00" arrivalLane="top-exit_1" arrivalPos="486.40" arrivalSpeed="15.78" duration="113.20" routeLength="995.17" waitingTime="0.00" waitingCount="0" stopTime="0.00" timeLoss="50.18" rerouteNo="0" devices="tripinfo_L0-HDV-17 emissions_L0-HDV-17 ssm_L0-HDV-17" vType="L0-HDV-64" speedFactor="0.95" vaporized="">
        <emissions CO_abs="5048.257556" CO2_abs="239533.110899" HC_abs="28.315998" PMx_abs="4.058830" NOx_abs="95.136618" fuel_abs="102.966597" electricity_abs="0"/>
    </tripinfo>
    <tripinfo id="L2-AV-1" depart="9.40" departLane="bottom-approaching_0" departPos="5.10" departSpeed="0.00" departDelay="4.40" arrival="159.60" arrivalLane="top-exit_0" arrivalPos="486.40" arrivalSpeed="12.93" duration="150.20" routeLength="995.17" waitingTime="0.10" waitingCount="1" stopTime="0.00" timeLoss="73.15" rerouteNo="0" devices="tripinfo_L2-AV-1 emissions_L2-AV-1 ssm_L2-AV-1 toc_L2-AV-1 driverstateL2-AV-1" vType="L2-AV-88@L2-AV-1" speedFactor="0.78" vaporized="">
        <emissions CO_abs="2964.501891" CO2_abs="235874.422059" HC_abs="18.439165" PMx_abs="2.622945" NOx_abs="84.456969" fuel_abs="101.394258" electricity_abs="0"/>
    </tripinfo>
    <tripinfo id="L0-HDV-35" depart="94.20" departLane="top-approaching_0" departPos="5.10" departSpeed="0.00" departDelay="0.05" arrival="159.70" arrivalLane="bottom-exit_1" arrivalPos="489.60" arrivalSpeed="16.62" duration="65.50" routeLength="995.17" waitingTime="0.00" waitingCount="0" stopTime="0.00" timeLoss="5.52" rerouteNo="0" devices="tripinfo_L0-HDV-35 emissions_L0-HDV-35 ssm_L0-HDV-35" vType="L0-HDV-33" speedFactor="1.00" vaporized="">
        <emissions CO_abs="1638.808475" CO2_abs="167428.984494" HC_abs="11.266045" PMx_abs="2.701271" NOx_abs="64.559492" fuel_abs="71.970355" electricity_abs="0"/>
    </tripinfo>
    <tripinfo id="L4-AV-6" depart="66.00" departLane="bottom-approaching_0" departPos="5.10" departSpeed="0.00" departDelay="0.00" arrival="160.30" arrivalLane="top-exit_1" arrivalPos="486.40" arrivalSpeed="17.27" duration="94.30" routeLength="995.17" waitingTime="0.10" waitingCount="1" stopTime="0.00" timeLoss="39.34" rerouteNo="0" devices="tripinfo_L4-AV-6 emissions_L4-AV-6 ssm_L4-AV-6 toc_L4-AV-6 driverstateL4-AV-6" vType="L4-AV-14@L4-AV-6" speedFactor="1.09" vaporized="">
        <emissions CO_abs="3197.908212" CO2_abs="214386.381206" HC_abs="18.952968" PMx_abs="3.233620" NOx_abs="82.075700" fuel_abs="92.156396" electricity_abs="0"/>
    </tripinfo>
    <tripinfo id="L0-HDV-18" depart="48.80" departLane="top-approaching_0" departPos="5.10" departSpeed="0.00" departDelay="0.38" arrival="160.90" arrivalLane="bottom-exit_0" arrivalPos="489.60" arrivalSpeed="13.31" duration="112.10" routeLength="995.17" waitingTime="0.00" waitingCount="0" stopTime="0.00" timeLoss="37.57" rerouteNo="0" devices="tripinfo_L0-HDV-18 emissions_L0-HDV-18 ssm_L0-HDV-18" vType="L0-HDV-75" speedFactor="0.80" vaporized="">
        <emissions CO_abs="4577.535733" CO2_abs="225561.322292" HC_abs="26.077012" PMx_abs="3.811658" NOx_abs="90.495720" fuel_abs="96.960438" electricity_abs="0"/>
    </tripinfo>
    <tripinfo id="L2-AV-18" depart="92.80" departLane="top-approaching_0" departPos="5.10" departSpeed="0.00" departDelay="2.80" arrival="161.30" arrivalLane="bottom-exit_1" arrivalPos="489.60" arrivalSpeed="16.86" duration="68.50" routeLength="995.17" waitingTime="0.00" waitingCount="0" stopTime="0.00" timeLoss="9.38" rerouteNo="0" devices="tripinfo_L2-AV-18 emissions_L2-AV-18 ssm_L2-AV-18 toc_L2-AV-18 driverstateL2-AV-18" vType="L2-AV-0@L2-AV-18" speedFactor="1.01" vaporized="">
        <emissions CO_abs="1746.463227" CO2_abs="151315.211479" HC_abs="10.623069" PMx_abs="2.167185" NOx_abs="56.164122" fuel_abs="65.044305" electricity_abs="0"/>
    </tripinfo>
    <tripinfo id="L2-AV-17" depart="85.00" departLane="bottom-approaching_0" departPos="5.10" departSpeed="0.00" departDelay="0.00" arrival="162.30" arrivalLane="top-exit_0" arrivalPos="486.40" arrivalSpeed="18.52" duration="77.30" routeLength="995.17" waitingTime="0.00" waitingCount="0" stopTime="0.00" timeLoss="28.56" rerouteNo="0" devices="tripinfo_L2-AV-17 emissions_L2-AV-17 ssm_L2-AV-17 toc_L2-AV-17 driverstateL2-AV-17" vType="L2-AV-99@L2-AV-17" speedFactor="1.23" vaporized="">
        <emissions CO_abs="2662.713192" CO2_abs="211285.893385" HC_abs="16.625409" PMx_abs="3.310409" NOx_abs="81.493748" fuel_abs="90.823054" electricity_abs="0"/>
    </tripinfo>
    <tripinfo id="L0-HDV-37" depart="99.60" departLane="bottom-approaching_0" departPos="5.10" departSpeed="0.00" departDelay="0.07" arrival="164.40" arrivalLane="right-exit_1" arrivalPos="486.40" arrivalSpeed="17.74" duration="64.80" routeLength="979.93" waitingTime="0.00" waitingCount="0" stopTime="0.00" timeLoss="8.70" rerouteNo="0" devices="tripinfo_L0-HDV-37 emissions_L0-HDV-37 ssm_L0-HDV-37" vType="L0-HDV-73" speedFactor="1.06" vaporized="">
        <emissions CO_abs="2375.705222" CO2_abs="197911.845900" HC_abs="15.313959" PMx_abs="3.418393" NOx_abs="77.942797" fuel_abs="85.073604" electricity_abs="0"/>
    </tripinfo>
    <tripinfo id="L2-CV-1" depart="5.00" departLane="top-approaching_0" departPos="5.10" departSpeed="0.00" departDelay="0.00" arrival="167.80" arrivalLane="left-exit_0" arrivalPos="831.00" arrivalSpeed="16.95" duration="162.80" routeLength="1386.28" waitingTime="66.80" waitingCount="1" stopTime="0.00" timeLoss="78.38" rerouteNo="0" devices="tripinfo_L2-CV-1 emissions_L2-CV-1 ssm_L2-CV-1 toc_L2-CV-1 driverstateL2-CV-1" vType="L2-CV-30@L2-CV-1" speedFactor="1.02" vaporized="">
        <emissions CO_abs="13580.171599" CO2_abs="464809.644558" HC_abs="69.375808" PMx_abs="8.118728" NOx_abs="182.932820" fuel_abs="199.807478" electricity_abs="0"/>
    </tripinfo>
    <tripinfo id="L2-CV-18" depart="90.00" departLane="top-approaching_0" departPos="5.10" departSpeed="0.00" departDelay="0.00" arrival="169.00" arrivalLane="right-exit_1" arrivalPos="486.40" arrivalSpeed="16.27" duration="79.00" routeLength="992.21" waitingTime="6.30" waitingCount="1" stopTime="0.00" timeLoss="17.00" rerouteNo="0" devices="tripinfo_L2-CV-18 emissions_L2-CV-18 ssm_L2-CV-18 toc_L2-CV-18 driverstateL2-CV-18" vType="L2-CV-98@L2-CV-18" speedFactor="0.98" vaporized="">
        <emissions CO_abs="3173.515219" CO2_abs="254323.968050" HC_abs="18.040434" PMx_abs="3.455778" NOx_abs="92.556171" fuel_abs="109.324008" electricity_abs="0"/>
    </tripinfo>
    <tripinfo id="L0-HDV-32" depart="86.10" departLane="bottom-approaching_0" departPos="5.10" departSpeed="0.00" departDelay="0.02" arrival="172.40" arrivalLane="right-exit_0" arrivalPos="486.40" arrivalSpeed="12.10" duration="86.30" routeLength="979.93" waitingTime="0.00" waitingCount="0" stopTime="0.00" timeLoss="4.81" rerouteNo="0" devices="tripinfo_L0-HDV-32 emissions_L0-HDV-32 ssm_L0-HDV-32" vType="L0-HDV-75" speedFactor="0.73" vaporized="">
        <emissions CO_abs="2392.180220" CO2_abs="187086.312732" HC_abs="15.215933" PMx_abs="2.792564" NOx_abs="72.672533" fuel_abs="80.420824" electricity_abs="0"/>
    </tripinfo>
    <tripinfo id="L2-CV-5" depart="25.00" departLane="top-approaching_0" departPos="5.10" departSpeed="0.00" departDelay="0.00" arrival="176.90" arrivalLane="left-exit_0" arrivalPos="831.00" arrivalSpeed="15.25" duration="151.90" routeLength="1386.28" waitingTime="41.40" waitingCount="1" stopTime="0.00" timeLoss="58.26" rerouteNo="0" devices="tripinfo_L2-CV-5 emissions_L2-CV-5 ssm_L2-CV-5 toc_L2-CV-5 driverstateL2-CV-5" vType="L2-CV-72@L2-CV-5" speedFactor="0.91" vaporized="">
        <emissions CO_abs="7039.588383" CO2_abs="379598.657018" HC_abs="37.612917" PMx_abs="5.094251" NOx_abs="139.013318" fuel_abs="163.176730" electricity_abs="0"/>
    </tripinfo>
    <tripinfo id="L2-CV-11" depart="59.00" departLane="top-approaching_0" departPos="5.10" departSpeed="0.00" departDelay="4.00" arrival="177.50" arrivalLane="left-exit_1" arrivalPos="831.00" arrivalSpeed="16.79" duration="118.50" routeLength="1386.28" waitingTime="6.50" waitingCount="33" stopTime="0.00" timeLoss="33.32" rerouteNo="0" devices="tripinfo_L2-CV-11 emissions_L2-CV-11 ssm_L2-CV-11 toc_L2-CV-11 driverstateL2-CV-11" vType="L2-CV-8@L2-CV-11" speedFactor="1.01" vaporized="">
        <emissions CO_abs="4570.026460" CO2_abs="310750.296303" HC_abs="25.123289" PMx_abs="4.227798" NOx_abs="113.262446" fuel_abs="133.580050" electricity_abs="0"/>
    </tripinfo>
    <tripinfo id="L4-CV-6" depart="66.00" departLane="top-approaching_0" departPos="5.10" departSpeed="0.00" departDelay="0.00" arrival="178.70" arrivalLane="left-exit_1" arrivalPos="831.00" arrivalSpeed="16.97" duration="112.70" routeLength="1386.28" waitingTime="2.70" waitingCount="27" stopTime="0.00" timeLoss="28.43" rerouteNo="0" devices="tripinfo_L4-CV-6 emissions_L4-CV-6 ssm_L4-CV-6 toc_L4-CV-6 driverstateL4-CV-6" vType="L4-CV-59@L4-CV-6" speedFactor="1.02" vaporized="">
        <emissions CO_abs="4415.493999" CO2_abs="309526.010054" HC_abs="24.588107" PMx_abs="4.284924" NOx_abs="113.204563" fuel_abs="133.053588" electricity_abs="0"/>
    </tripinfo>
    <tripinfo id="L4-CV-5" depart="55.00" departLane="top-approaching_0" departPos="5.10" departSpeed="0.00" departDelay="0.00" arrival="179.40" arrivalLane="left-exit_0" arrivalPos="831.00" arrivalSpeed="15.61" duration="124.40" routeLength="1386.28" waitingTime="10.70" waitingCount="16" stopTime="0.00" timeLoss="32.73" rerouteNo="0" devices="tripinfo_L4-CV-5 emissions_L4-CV-5 ssm_L4-CV-5 toc_L4-CV-5 driverstateL4-CV-5" vType="L4-CV-81@L4-CV-5" speedFactor="0.94" vaporized="">
        <emissions CO_abs="4760.459793" CO2_abs="344353.795551" HC_abs="26.157285" PMx_abs="4.228528" NOx_abs="122.882831" fuel_abs="148.025324" electricity_abs="0"/>
    </tripinfo>
    <tripinfo id="L0-HDV-5" depart="14.10" departLane="bottom-approaching_0" departPos="5.10" departSpeed="0.00" departDelay="0.65" arrival="187.80" arrivalLane="left-exit_0" arrivalPos="831.00" arrivalSpeed="18.05" duration="173.70" routeLength="1396.90" waitingTime="79.20" waitingCount="2" stopTime="0.00" timeLoss="94.54" rerouteNo="0" devices="tripinfo_L0-HDV-5 emissions_L0-HDV-5 ssm_L0-HDV-5" vType="L0-HDV-56" speedFactor="1.09" vaporized="">
        <emissions CO_abs="17569.337490" CO2_abs="534980.235616" HC_abs="92.553334" PMx_abs="11.264087" NOx_abs="227.248478" fuel_abs="229.970650" electricity_abs="0"/>
    </tripinfo>
    <tripinfo id="L2-CV-24" depart="120.00" departLane="top-approaching_0" departPos="5.10" departSpeed="0.00" departDelay="0.00" arrival="191.20" arrivalLane="right-exit_0" arrivalPos="486.40" arrivalSpeed="15.36" duration="71.20" routeLength="992.21" waitingTime="0.00" waitingCount="0" stopTime="0.00" timeLoss="5.50" rerouteNo="0" devices="tripinfo_L2-CV-24 emissions_L2-CV-24 ssm_L2-CV-24 toc_L2-CV-24 driverstateL2-CV-24" vType="L2-CV-44@L2-CV-24" speedFactor="0.92" vaporized="">