<?xml version="1.0" ?><!-- generated on 04/25/21 15:50:10 by Eclipse SUMO duarouter Version 1.8.0
<configuration xmlns:xsi="http://www.w3.org/2001/XMLSchema-instance" xsi:noNamespaceSchemaLocation="http://sumo.dlr.de/xsd/duarouterConfiguration.xsd">

    <input>
        <net-file value="Roadworks/RoadworksIntersection.net.xml"/>
        <route-files value="trips.trips.xml"/>
    </input>

    <output>
        <output-file value="Roadworks/BaselinePenetration3/Route-Files/L0-HDV-Route.rou.xml"/>
        <alternatives-output value="Roadworks/BaselinePenetration3/Route-Files/L0-HDV-Route.rou.alt.xml"/>
    </output>

    <time>
        <begin value="0"/>
        <end value="3600"/>
    </time>

    <report>
        <no-warnings value="true"/>
        <ignore-errors value="true"/>
        <no-step-log value="true"/>
    </report>

</configuration>
--><routes xmlns:xsi="http://www.w3.org/2001/XMLSchema-instance" xsi:noNamespaceSchemaLocation="http://sumo.dlr.de/xsd/routes_file.xsd">
    <vehicle id="L0-HDV-2" type="L0-HDV-" depart="22.00">
        <route edges="top-approaching right-exit"/>
    </vehicle>
    <vehicle id="L0-HDV-3" type="L0-HDV-" depart="33.00">
        <route edges="right-approaching closed-lane remerging-lane left-exit"/>
    </vehicle>
    <vehicle id="L0-HDV-5" type="L0-HDV-" depart="55.00">
        <route edges="right-approaching bottom-exit"/>
    </vehicle>
    <vehicle id="L0-HDV-7" type="L0-HDV-" depart="77.00">
        <route edges="right-approaching top-exit"/>
    </vehicle>
    <vehicle id="L0-HDV-8" type="L0-HDV-" depart="88.00">
        <route edges="top-approaching right-exit"/>
    </vehicle>
    <vehicle id="L0-HDV-12" type="L0-HDV-Left-" depart="132.00">
        <route edges="left-long-approaching preparation"/>
    </vehicle>
    <vehicle id="L0-HDV-15" type="L0-HDV-" depart="165.00">
        <route edges="left-long-approaching preparation left-short-approaching bottom-exit"/>
    </vehicle>
    <vehicle id="L0-HDV-16" type="L0-HDV-" depart="176.00">
        <route edges="right-approaching top-exit"/>
    </vehicle>
    <vehicle id="L0-HDV-17" type="L0-HDV-" depart="187.00">
        <route edges="right-approaching bottom-exit"/>
    </vehicle>
    <vehicle id="L0-HDV-19" type="L0-HDV-" depart="209.00">
        <route edges="right-approaching top-exit"/>
    </vehicle>
    <vehicle id="L0-HDV-21" type="L0-HDV-Left-" depart="231.00">
        <route edges="left-long-approaching preparation"/>
    </vehicle>
    <vehicle id="L0-HDV-22" type="L0-HDV-" depart="242.00">
        <route edges="top-approaching bottom-exit"/>
    </vehicle>
    <vehicle id="L0-HDV-23" type="L0-HDV-" depart="253.00">
        <route edges="top-approaching right-exit"/>
    </vehicle>
    <vehicle id="L0-HDV-24" type="L0-HDV-Straight-" depart="264.00">
        <route edges="left-long-approaching preparation left-short-approaching right-exit"/>
    </vehicle>
    <vehicle id="L0-HDV-25" type="L0-HDV-Left-" depart="275.00">
        <route edges="left-long-approaching preparation"/>
    </vehicle>
    <vehicle id="L0-HDV-26" type="L0-HDV-Left-" depart="286.00">
        <route edges="left-long-approaching preparation"/>
    </vehicle>
    <vehicle id="L0-HDV-27" type="L0-HDV-Left-" depart="297.00">
        <route edges="left-long-approaching preparation"/>
    </vehicle>
    <vehicle id="L0-HDV-28" type="L0-HDV-" depart="308.00">
        <route edges="top-approaching closed-lane remerging-lane left-exit"/>
    </vehicle>
    <vehicle id="L0-HDV-29" type="L0-HDV-" depart="319.00">
        <route edges="right-approaching top-exit"/>
    </vehicle>
    <vehicle id="L0-HDV-30" type="L0-HDV-" depart="330.00">
        <route edges="right-approaching closed-lane remerging-lane left-exit"/>
    </vehicle>
    <vehicle id="L0-HDV-31" type="L0-HDV-" depart="341.00">
        <route edges="bottom-approaching closed-lane remerging-lane left-exit"/>
    </vehicle>
    <vehicle id="L0-HDV-32" type="L0-HDV-" depart="352.00">
        <route edges="right-approaching bottom-exit"/>
    </vehicle>
    <vehicle id="L0-HDV-33" type="L0-HDV-" depart="363.00">
        <route edges="top-approaching closed-lane remerging-lane left-exit"/>
    </vehicle>
    <vehicle id="L0-HDV-34" type="L0-HDV-" depart="374.00">
        <route edges="top-approaching closed-lane remerging-lane left-exit"/>
    </vehicle>
    <vehicle id="L0-HDV-35" type="L0-HDV-" depart="385.00">
        <route edges="top-approaching right-exit"/>
    </vehicle>
    <vehicle id="L0-HDV-38" type="L0-HDV-" depart="418.00">
        <route edges="left-long-approaching preparation left-short-approaching bottom-exit"/>
    </vehicle>
    <vehicle id="L0-HDV-39" type="L0-HDV-" depart="429.00">
        <route edges="right-approaching top-exit"/>
    </vehicle>
    <vehicle id="L0-HDV-40" type="L0-HDV-" depart="440.00">
        <route edges="right-approaching bottom-exit"/>
    </vehicle>
    <vehicle id="L0-HDV-41" type="L0-HDV-" depart="451.00">
        <route edges="top-approaching right-exit"/>
    </vehicle>
    <vehicle id="L0-HDV-42" type="L0-HDV-" depart="462.00">
        <route edges="top-approaching bottom-exit"/>
    </vehicle>
    <vehicle id="L0-HDV-43" type="L0-HDV-" depart="473.00">
        <route edges="right-approaching bottom-exit"/>
    </vehicle>
    <vehicle id="L0-HDV-44" type="L0-HDV-" depart="484.00">
        <route edges="right-approaching closed-lane remerging-lane left-exit"/>
    </vehicle>
    <vehicle id="L0-HDV-45" type="L0-HDV-" depart="495.00">
        <route edges="bottom-approaching top-exit"/>
    </vehicle>
    <vehicle id="L0-HDV-46" type="L0-HDV-" depart="506.00">
        <route edges="bottom-approaching right-exit"/>
    </vehicle>
    <vehicle id="L0-HDV-47" type="L0-HDV-" depart="517.00">
        <route edges="top-approaching bottom-exit"/>
    </vehicle>
    <vehicle id="L0-HDV-48" type="L0-HDV-" depart="528.00">
        <route edges="bottom-approaching top-exit"/>
    </vehicle>
    <vehicle id="L0-HDV-49" type="L0-HDV-Straight-" depart="539.00">
        <route edges="left-long-approaching preparation left-short-approaching right-exit"/>
    </vehicle>
    <vehicle id="L0-HDV-50" type="L0-HDV-" depart="550.00">
        <route edges="bottom-approaching closed-lane remerging-lane left-exit"/>
    </vehicle>
    <vehicle id="L0-HDV-51" type="L0-HDV-" depart="561.00">
        <route edges="bottom-approaching right-exit"/>
    </vehicle>
    <vehicle id="L0-HDV-52" type="L0-HDV-" depart="572.00">
        <route edges="bottom-approaching top-exit"/>
    </vehicle>
    <vehicle id="L0-HDV-53" type="L0-HDV-" depart="583.00">
        <route edges="bottom-approaching right-exit"/>
    </vehicle>
    <vehicle id="L0-HDV-54" type="L0-HDV-" depart="594.00">
        <route edges="bottom-approaching closed-lane remerging-lane left-exit"/>
    </vehicle>
    <vehicle id="L0-HDV-55" type="L0-HDV-" depart="605.00">
        <route edges="top-approaching bottom-exit"/>
    </vehicle>
    <vehicle id="L0-HDV-56" type="L0-HDV-" depart="616.00">
        <route edges="bottom-approaching right-exit"/>
    </vehicle>
    <vehicle id="L0-HDV-57" type="L0-HDV-" depart="627.00">
        <route edges="left-long-approaching preparation left-short-approaching bottom-exit"/>
    </vehicle>
    <vehicle id="L0-HDV-58" type="L0-HDV-" depart="638.00">
        <route edges="top-approaching bottom-exit"/>
    </vehicle>
    <vehicle id="L0-HDV-59" type="L0-HDV-" depart="649.00">
        <route edges="bottom-approaching closed-lane remerging-lane left-exit"/>
    </vehicle>
    <vehicle id="L0-HDV-61" type="L0-HDV-" depart="671.00">
        <route edges="bottom-approaching closed-lane remerging-lane left-exit"/>
    </vehicle>
    <vehicle id="L0-HDV-62" type="L0-HDV-" depart="682.00">
        <route edges="bottom-approaching closed-lane remerging-lane left-exit"/>
    </vehicle>
    <vehicle id="L0-HDV-63" type="L0-HDV-" depart="693.00">
        <route edges="top-approaching right-exit"/>
    </vehicle>
    <vehicle id="L0-HDV-65" type="L0-HDV-" depart="715.00">
        <route edges="top-approaching right-exit"/>
    </vehicle>
    <vehicle id="L0-HDV-66" type="L0-HDV-" depart="726.00">
        <route edges="left-long-approaching preparation left-short-approaching bottom-exit"/>
    </vehicle>
    <vehicle id="L0-HDV-67" type="L0-HDV-" depart="737.00">
        <route edges="right-approaching closed-lane remerging-lane left-exit"/>
    </vehicle>
    <vehicle id="L0-HDV-68" type="L0-HDV-" depart="748.00">
        <route edges="bottom-approaching closed-lane remerging-lane left-exit"/>
    </vehicle>
    <vehicle id="L0-HDV-69" type="L0-HDV-" depart="759.00">
        <route edges="top-approaching bottom-exit"/>
    </vehicle>
    <vehicle id="L0-HDV-70" type="L0-HDV-" depart="770.00">
        <route edges="right-approaching closed-lane remerging-lane left-exit"/>
    </vehicle>
    <vehicle id="L0-HDV-71" type="L0-HDV-" depart="781.00">
        <route edges="right-approaching bottom-exit"/>
    </vehicle>
    <vehicle id="L0-HDV-72" type="L0-HDV-" depart="792.00">
        <route edges="top-approaching closed-lane remerging-lane left-exit"/>
    </vehicle>
    <vehicle id="L0-HDV-73" type="L0-HDV-" depart="803.00">
        <route edges="right-approaching closed-lane remerging-lane left-exit"/>
    </vehicle>
    <vehicle id="L0-HDV-74" type="L0-HDV-" depart="814.00">
        <route edges="bottom-approaching right-exit"/>
    </vehicle>
    <vehicle id="L0-HDV-77" type="L0-HDV-" depart="847.00">
        <route edges="bottom-approaching right-exit"/>
    </vehicle>
    <vehicle id="L0-HDV-78" type="L0-HDV-" depart="858.00">
        <route edges="right-approaching top-exit"/>
    </vehicle>
    <vehicle id="L0-HDV-80" type="L0-HDV-" depart="880.00">
        <route edges="bottom-approaching closed-lane remerging-lane left-exit"/>
    </vehicle>
    <vehicle id="L0-HDV-81" type="L0-HDV-Straight-" depart="891.00">
        <route edges="left-long-approaching preparation left-short-approaching right-exit"/>
    </vehicle>
    <vehicle id="L0-HDV-82" type="L0-HDV-" depart="902.00">
        <route edges="right-approaching top-exit"/>
    </vehicle>
    <vehicle id="L0-HDV-83" type="L0-HDV-" depart="913.00">
        <route edges="right-approaching closed-lane remerging-lane left-exit"/>
    </vehicle>
    <vehicle id="L0-HDV-84" type="L0-HDV-Straight-" depart="924.00">
        <route edges="left-long-approaching preparation left-short-approaching right-exit"/>
    </vehicle>
    <vehicle id="L0-HDV-86" type="L0-HDV-" depart="946.00">
        <route edges="left-long-approaching preparation left-short-approaching bottom-exit"/>
    </vehicle>
    <vehicle id="L0-HDV-87" type="L0-HDV-" depart="957.00">
        <route edges="right-approaching bottom-exit"/>
    </vehicle>
    <vehicle id="L0-HDV-90" type="L0-HDV-" depart="990.00">
        <route edges="right-approaching closed-lane remerging-lane left-exit"/>
    </vehicle>
    <vehicle id="L0-HDV-91" type="L0-HDV-Straight-" depart="1001.00">
        <route edges="left-long-approaching preparation left-short-approaching right-exit"/>
    </vehicle>
    <vehicle id="L0-HDV-92" type="L0-HDV-" depart="1012.00">
        <route edges="bottom-approaching top-exit"/>
    </vehicle>
    <vehicle id="L0-HDV-93" type="L0-HDV-" depart="1023.00">
        <route edges="top-approaching right-exit"/>
    </vehicle>
    <vehicle id="L0-HDV-94" type="L0-HDV-Straight-" depart="1034.00">
        <route edges="left-long-approaching preparation left-short-approaching right-exit"/>
    </vehicle>
    <vehicle id="L0-HDV-95" type="L0-HDV-" depart="1045.00">
        <route edges="right-approaching bottom-exit"/>
    </vehicle>
    <vehicle id="L0-HDV-96" type="L0-HDV-Straight-" depart="1056.00">
        <route edges="left-long-approaching preparation left-short-approaching right-exit"/>
    </vehicle>
    <vehicle id="L0-HDV-98" type="L0-HDV-" depart="1078.00">
        <route edges="top-approaching closed-lane remerging-lane left-exit"/>
    </vehicle>
    <vehicle id="L0-HDV-99" type="L0-HDV-" depart="1089.00">
        <route edges="right-approaching top-exit"/>
    </vehicle>
    <vehicle id="L0-HDV-100" type="L0-HDV-" depart="1100.00">
        <route edges="right-approaching closed-lane remerging-lane left-exit"/>
    </vehicle>
    <vehicle id="L0-HDV-101" type="L0-HDV-" depart="1111.00">
        <route edges="top-approaching closed-lane remerging-lane left-exit"/>
    </vehicle>
    <vehicle id="L0-HDV-102" type="L0-HDV-" depart="1122.00">
        <route edges="bottom-approaching right-exit"/>
    </vehicle>
    <vehicle id="L0-HDV-103" type="L0-HDV-" depart="1133.00">
        <route edges="bottom-approaching closed-lane remerging-lane left-exit"/>
    </vehicle>
    <vehicle id="L0-HDV-104" type="L0-HDV-" depart="1144.00">
        <route edges="top-approaching right-exit"/>
    </vehicle>
    <vehicle id="L0-HDV-105" type="L0-HDV-" depart="1155.00">
        <route edges="bottom-approaching closed-lane remerging-lane left-exit"/>
    </vehicle>
    <vehicle id="L0-HDV-107" type="L0-HDV-" depart="1177.00">
        <route edges="bottom-approaching right-exit"/>
    </vehicle>
    <vehicle id="L0-HDV-108" type="L0-HDV-" depart="1188.00">
        <route edges="bottom-approaching closed-lane remerging-lane left-exit"/>
    </vehicle>
    <vehicle id="L0-HDV-109" type="L0-HDV-Left-" depart="1199.00">
        <route edges="left-long-approaching preparation"/>
    </vehicle>
    <vehicle id="L0-HDV-110" type="L0-HDV-" depart="1210.00">
        <route edges="bottom-approaching top-exit"/>
    </vehicle>
    <vehicle id="L0-HDV-111" type="L0-HDV-" depart="1221.00">
        <route edges="bottom-approaching right-exit"/>
    </vehicle>
    <vehicle id="L0-HDV-113" type="L0-HDV-" depart="1243.00">
        <route edges="top-approaching closed-lane remerging-lane left-exit"/>
    </vehicle>
    <vehicle id="L0-HDV-115" type="L0-HDV-" depart="1265.00">
        <route edges="bottom-approaching top-exit"/>
    </vehicle>
    <vehicle id="L0-HDV-116" type="L0-HDV-" depart="1276.00">
        <route edges="right-approaching top-exit"/>
    </vehicle>
    <vehicle id="L0-HDV-117" type="L0-HDV-" depart="1287.00">
        <route edges="right-approaching bottom-exit"/>
    </vehicle>
    <vehicle id="L0-HDV-118" type="L0-HDV-" depart="1298.00">
        <route edges="right-approaching top-exit"/>
    </vehicle>
    <vehicle id="L0-HDV-121" type="L0-HDV-" depart="1331.00">
        <route edges="top-approaching closed-lane remerging-lane left-exit"/>
    </vehicle>
    <vehicle id="L0-HDV-122" type="L0-HDV-" depart="1342.00">
        <route edges="right-approaching closed-lane remerging-lane left-exit"/>
    </vehicle>
    <vehicle id="L0-HDV-125" type="L0-HDV-" depart="1375.00">
        <route edges="left-long-approaching preparation left-short-approaching bottom-exit"/>
    </vehicle>
    <vehicle id="L0-HDV-127" type="L0-HDV-Straight-" depart="1397.00">
        <route edges="left-long-approaching preparation left-short-approaching right-exit"/>
    </vehicle>
    <vehicle id="L0-HDV-128" type="L0-HDV-" depart="1408.00">
        <route edges="top-approaching right-exit"/>
    </vehicle>
    <vehicle id="L0-HDV-129" type="L0-HDV-" depart="1419.00">
        <route edges="top-approaching bottom-exit"/>
    </vehicle>
    <vehicle id="L0-HDV-130" type="L0-HDV-Left-" depart="1430.00">
        <route edges="left-long-approaching preparation"/>
    </vehicle>
    <vehicle id="L0-HDV-131" type="L0-HDV-" depart="1441.00">
        <route edges="bottom-approaching closed-lane remerging-lane left-exit"/>
    </vehicle>
    <vehicle id="L0-HDV-134" type="L0-HDV-" depart="1474.00">
        <route edges="right-approaching bottom-exit"/>
    </vehicle>
    <vehicle id="L0-HDV-135" type="L0-HDV-" depart="1485.00">
        <route edges="left-long-approaching preparation left-short-approaching bottom-exit"/>
    </vehicle>
    <vehicle id="L0-HDV-137" type="L0-HDV-Straight-" depart="1507.00">
        <route edges="left-long-approaching preparation left-short-approaching right-exit"/>
    </vehicle>
    <vehicle id="L0-HDV-138" type="L0-HDV-" depart="1518.00">
        <route edges="bottom-approaching right-exit"/>
    </vehicle>
    <vehicle id="L0-HDV-140" type="L0-HDV-" depart="1540.00">
        <route edges="bottom-approaching right-exit"/>
    </vehicle>
    <vehicle id="L0-HDV-141" type="L0-HDV-" depart="1551.00">
        <route edges="right-approaching closed-lane remerging-lane left-exit"/>
    </vehicle>
    <vehicle id="L0-HDV-142" type="L0-HDV-" depart="1562.00">
        <route edges="top-approaching closed-lane remerging-lane left-exit"/>
    </vehicle>
    <vehicle id="L0-HDV-143" type="L0-HDV-" depart="1573.00">
        <route edges="right-approaching closed-lane remerging-lane left-exit"/>
    </vehicle>
    <vehicle id="L0-HDV-145" type="L0-HDV-" depart="1595.00">
        <route edges="right-approaching bottom-exit"/>
    </vehicle>
    <vehicle id="L0-HDV-146" type="L0-HDV-" depart="1606.00">
        <route edges="left-long-approaching preparation left-short-approaching bottom-exit"/>
    </vehicle>
    <vehicle id="L0-HDV-147" type="L0-HDV-" depart="1617.00">
        <route edges="right-approaching top-exit"/>
    </vehicle>
    <vehicle id="L0-HDV-148" type="L0-HDV-" depart="1628.00">
        <route edges="bottom-approaching right-exit"/>
    </vehicle>
    <vehicle id="L0-HDV-150" type="L0-HDV-" depart="1650.00">
        <route edges="right-approaching top-exit"/>
    </vehicle>
    <vehicle id="L0-HDV-151" type="L0-HDV-" depart="1661.00">
        <route edges="right-approaching closed-lane remerging-lane left-exit"/>
    </vehicle>
    <vehicle id="L0-HDV-152" type="L0-HDV-" depart="1672.00">
        <route edges="top-approaching closed-lane remerging-lane left-exit"/>
    </vehicle>
    <vehicle id="L0-HDV-155" type="L0-HDV-" depart="1705.00">
        <route edges="bottom-approaching right-exit"/>
    </vehicle>
    <vehicle id="L0-HDV-156" type="L0-HDV-Straight-" depart="1716.00">
        <route edges="left-long-approaching preparation left-short-approaching right-exit"/>
    </vehicle>
    <vehicle id="L0-HDV-157" type="L0-HDV-" depart="1727.00">
        <route edges="top-approaching right-exit"/>
    </vehicle>
    <vehicle id="L0-HDV-158" type="L0-HDV-" depart="1738.00">
        <route edges="bottom-approaching closed-lane remerging-lane left-exit"/>
    </vehicle>
    <vehicle id="L0-HDV-159" type="L0-HDV-" depart="1749.00">
        <route edges="right-approaching top-exit"/>
    </vehicle>
    <vehicle id="L0-HDV-160" type="L0-HDV-" depart="1760.00">
        <route edges="right-approaching top-exit"/>
    </vehicle>
    <vehicle id="L0-HDV-161" type="L0-HDV-" depart="1771.00">
        <route edges="bottom-approaching top-exit"/>
    </vehicle>
    <vehicle id="L0-HDV-164" type="L0-HDV-" depart="1804.00">
        <route edges="bottom-approaching top-exit"/>
    </vehicle>
    <vehicle id="L0-HDV-165" type="L0-HDV-" depart="1815.00">
        <route edges="top-approaching bottom-exit"/>
    </vehicle>
    <vehicle id="L0-HDV-167" type="L0-HDV-" depart="1837.00">
        <route edges="bottom-approaching top-exit"/>
    </vehicle>
    <vehicle id="L0-HDV-168" type="L0-HDV-" depart="1848.00">
        <route edges="bottom-approaching right-exit"/>
    </vehicle>
    <vehicle id="L0-HDV-170" type="L0-HDV-" depart="1870.00">
        <route edges="right-approaching closed-lane remerging-lane left-exit"/>
    </vehicle>
    <vehicle id="L0-HDV-171" type="L0-HDV-" depart="1881.00">
        <route edges="bottom-approaching top-exit"/>
    </vehicle>
    <vehicle id="L0-HDV-173" type="L0-HDV-Left-" depart="1903.00">
        <route edges="left-long-approaching preparation"/>
    </vehicle>
    <vehicle id="L0-HDV-174" type="L0-HDV-" depart="1914.00">
        <route edges="right-approaching top-exit"/>
    </vehicle>
    <vehicle id="L0-HDV-175" type="L0-HDV-Straight-" depart="1925.00">
        <route edges="left-long-approaching preparation left-short-approaching right-exit"/>
    </vehicle>
    <vehicle id="L0-HDV-177" type="L0-HDV-" depart="1947.00">
        <route edges="left-long-approaching preparation left-short-approaching bottom-exit"/>
    </vehicle>
    <vehicle id="L0-HDV-178" type="L0-HDV-" depart="1958.00">
        <route edges="bottom-approaching top-exit"/>
    </vehicle>
    <vehicle id="L0-HDV-179" type="L0-HDV-" depart="1969.00">
        <route edges="bottom-approaching right-exit"/>
    </vehicle>
    <vehicle id="L0-HDV-180" type="L0-HDV-" depart="1980.00">
        <route edges="top-approaching closed-lane remerging-lane left-exit"/>
    </vehicle>
    <vehicle id="L0-HDV-181" type="L0-HDV-" depart="1991.00">
        <route edges="right-approaching top-exit"/>
    </vehicle>
    <vehicle id="L0-HDV-182" type="L0-HDV-" depart="2002.00">
        <route edges="top-approaching bottom-exit"/>
    </vehicle>
    <vehicle id="L0-HDV-183" type="L0-HDV-" depart="2013.00">
        <route edges="bottom-approaching closed-lane remerging-lane left-exit"/>
    </vehicle>
    <vehicle id="L0-HDV-185" type="L0-HDV-" depart="2035.00">
        <route edges="bottom-approaching right-exit"/>
    </vehicle>
    <vehicle id="L0-HDV-186" type="L0-HDV-" depart="2046.00">
        <route edges="top-approaching closed-lane remerging-lane left-exit"/>
    </vehicle>
    <vehicle id="L0-HDV-187" type="L0-HDV-" depart="2057.00">
        <route edges="right-approaching closed-lane remerging-lane left-exit"/>
    </vehicle>
    <vehicle id="L0-HDV-188" type="L0-HDV-Left-" depart="2068.00">
        <route edges="left-long-approaching preparation"/>
    </vehicle>
    <vehicle id="L0-HDV-189" type="L0-HDV-Straight-" depart="2079.00">
        <route edges="left-long-approaching preparation left-short-approaching right-exit"/>
    </vehicle>
    <vehicle id="L0-HDV-190" type="L0-HDV-Straight-" depart="2090.00">
        <route edges="left-long-approaching preparation left-short-approaching right-exit"/>
    </vehicle>
    <vehicle id="L0-HDV-191" type="L0-HDV-" depart="2101.00">
        <route edges="top-approaching bottom-exit"/>
    </vehicle>
    <vehicle id="L0-HDV-192" type="L0-HDV-" depart="2112.00">
        <route edges="top-approaching closed-lane remerging-lane left-exit"/>
    </vehicle>
    <vehicle id="L0-HDV-193" type="L0-HDV-" depart="2123.00">
        <route edges="right-approaching top-exit"/>
    </vehicle>
    <vehicle id="L0-HDV-194" type="L0-HDV-" depart="2134.00">
        <route edges="right-approaching closed-lane remerging-lane left-exit"/>
    </vehicle>
    <vehicle id="L0-HDV-195" type="L0-HDV-" depart="2145.00">
        <route edges="top-approaching bottom-exit"/>
    </vehicle>
    <vehicle id="L0-HDV-196" type="L0-HDV-" depart="2156.00">
        <route edges="right-approaching closed-lane remerging-lane left-exit"/>
    </vehicle>
    <vehicle id="L0-HDV-197" type="L0-HDV-" depart="2167.00">
        <route edges="right-approaching top-exit"/>
    </vehicle>
    <vehicle id="L0-HDV-198" type="L0-HDV-" depart="2178.00">
        <route edges="top-approaching right-exit"/>
    </vehicle>
    <vehicle id="L0-HDV-199" type="L0-HDV-" depart="2189.00">
        <route edges="left-long-approaching preparation left-short-approaching bottom-exit"/>
    </vehicle>
    <vehicle id="L0-HDV-200" type="L0-HDV-" depart="2200.00">
        <route edges="left-long-approaching preparation left-short-approaching bottom-exit"/>
    </vehicle>
    <vehicle id="L0-HDV-201" type="L0-HDV-Left-" depart="2211.00">
        <route edges="left-long-approaching preparation"/>
    </vehicle>
    <vehicle id="L0-HDV-202" type="L0-HDV-" depart="2222.00">
        <route edges="bottom-approaching top-exit"/>
    </vehicle>
    <vehicle id="L0-HDV-204" type="L0-HDV-" depart="2244.00">
        <route edges="left-long-approaching preparation left-short-approaching bottom-exit"/>
    </vehicle>
    <vehicle id="L0-HDV-205" type="L0-HDV-" depart="2255.00">
        <route edges="left-long-approaching preparation left-short-approaching bottom-exit"/>
    </vehicle>
    <vehicle id="L0-HDV-208" type="L0-HDV-Straight-" depart="2288.00">
        <route edges="left-long-approaching preparation left-short-approaching right-exit"/>
    </vehicle>
    <vehicle id="L0-HDV-209" type="L0-HDV-" depart="2299.00">
        <route edges="top-approaching closed-lane remerging-lane left-exit"/>
    </vehicle>
    <vehicle id="L0-HDV-211" type="L0-HDV-" depart="2321.00">
        <route edges="bottom-approaching right-exit"/>
    </vehicle>
    <vehicle id="L0-HDV-213" type="L0-HDV-" depart="2343.00">
        <route edges="top-approaching bottom-exit"/>
    </vehicle>
    <vehicle id="L0-HDV-214" type="L0-HDV-" depart="2354.00">
        <route edges="top-approaching right-exit"/>
    </vehicle>
    <vehicle id="L0-HDV-215" type="L0-HDV-Left-" depart="2365.00">
        <route edges="left-long-approaching preparation"/>
    </vehicle>
    <vehicle id="L0-HDV-216" type="L0-HDV-Left-" depart="2376.00">
        <route edges="left-long-approaching preparation"/>
    </vehicle>
    <vehicle id="L0-HDV-218" type="L0-HDV-" depart="2398.00">
        <route edges="right-approaching top-exit"/>
    </vehicle>
    <vehicle id="L0-HDV-222" type="L0-HDV-Straight-" depart="2442.00">
        <route edges="left-long-approaching preparation left-short-approaching right-exit"/>
    </vehicle>
    <vehicle id="L0-HDV-223" type="L0-HDV-" depart="2453.00">
        <route edges="right-approaching closed-lane remerging-lane left-exit"/>
    </vehicle>
    <vehicle id="L0-HDV-224" type="L0-HDV-" depart="2464.00">
        <route edges="left-long-approaching preparation left-short-approaching bottom-exit"/>
    </vehicle>
    <vehicle id="L0-HDV-225" type="L0-HDV-" depart="2475.00">
        <route edges="top-approaching closed-lane remerging-lane left-exit"/>
    </vehicle>
    <vehicle id="L0-HDV-226" type="L0-HDV-Left-" depart="2486.00">
        <route edges="left-long-approaching preparation"/>
    </vehicle>
    <vehicle id="L0-HDV-227" type="L0-HDV-" depart="2497.00">
        <route edges="bottom-approaching top-exit"/>
    </vehicle>
    <vehicle id="L0-HDV-231" type="L0-HDV-" depart="2541.00">
        <route edges="top-approaching closed-lane remerging-lane left-exit"/>
    </vehicle>
    <vehicle id="L0-HDV-232" type="L0-HDV-" depart="2552.00">
        <route edges="right-approaching bottom-exit"/>
    </vehicle>
    <vehicle id="L0-HDV-233" type="L0-HDV-" depart="2563.00">
        <route edges="top-approaching closed-lane remerging-lane left-exit"/>
    </vehicle>
    <vehicle id="L0-HDV-234" type="L0-HDV-Straight-" depart="2574.00">
        <route edges="left-long-approaching preparation left-short-approaching right-exit"/>
    </vehicle>
    <vehicle id="L0-HDV-235" type="L0-HDV-" depart="2585.00">
        <route edges="bottom-approaching closed-lane remerging-lane left-exit"/>
    </vehicle>
    <vehicle id="L0-HDV-236" type="L0-HDV-" depart="2596.00">
        <route edges="top-approaching bottom-exit"/>
    </vehicle>
    <vehicle id="L0-HDV-241" type="L0-HDV-" depart="2651.00">
        <route edges="right-approaching closed-lane remerging-lane left-exit"/>
    </vehicle>
    <vehicle id="L0-HDV-242" type="L0-HDV-Left-" depart="2662.00">
        <route edges="left-long-approaching preparation"/>
    </vehicle>
    <vehicle id="L0-HDV-244" type="L0-HDV-" depart="2684.00">
        <route edges="top-approaching closed-lane remerging-lane left-exit"/>
    </vehicle>
    <vehicle id="L0-HDV-245" type="L0-HDV-" depart="2695.00">
        <route edges="top-approaching bottom-exit"/>
    </vehicle>
    <vehicle id="L0-HDV-246" type="L0-HDV-" depart="2706.00">
        <route edges="right-approaching top-exit"/>
    </vehicle>
    <vehicle id="L0-HDV-247" type="L0-HDV-Left-" depart="2717.00">
        <route edges="left-long-approaching preparation"/>
    </vehicle>
    <vehicle id="L0-HDV-248" type="L0-HDV-" depart="2728.00">
        <route edges="right-approaching closed-lane remerging-lane left-exit"/>
    </vehicle>
    <vehicle id="L0-HDV-249" type="L0-HDV-" depart="2739.00">
        <route edges="top-approaching closed-lane remerging-lane left-exit"/>
    </vehicle>
    <vehicle id="L0-HDV-250" type="L0-HDV-Straight-" depart="2750.00">
        <route edges="left-long-approaching preparation left-short-approaching right-exit"/>
    </vehicle>
    <vehicle id="L0-HDV-251" type="L0-HDV-Left-" depart="2761.00">
        <route edges="left-long-approaching preparation"/>
    </vehicle>
    <vehicle id="L0-HDV-253" type="L0-HDV-" depart="2783.00">
        <route edges="right-approaching top-exit"/>
    </vehicle>
    <vehicle id="L0-HDV-256" type="L0-HDV-" depart="2816.00">
        <route edges="right-approaching bottom-exit"/>
    </vehicle>
    <vehicle id="L0-HDV-257" type="L0-HDV-" depart="2827.00">
        <route edges="bottom-approaching top-exit"/>
    </vehicle>
    <vehicle id="L0-HDV-258" type="L0-HDV-" depart="2838.00">
        <route edges="bottom-approaching top-exit"/>
    </vehicle>
    <vehicle id="L0-HDV-259" type="L0-HDV-" depart="2849.00">
        <route edges="right-approaching top-exit"/>
    </vehicle>
    <vehicle id="L0-HDV-260" type="L0-HDV-" depart="2860.00">
        <route edges="bottom-approaching closed-lane remerging-lane left-exit"/>
    </vehicle>
    <vehicle id="L0-HDV-261" type="L0-HDV-" depart="2871.00">
        <route edges="top-approaching bottom-exit"/>
    </vehicle>
    <vehicle id="L0-HDV-262" type="L0-HDV-" depart="2882.00">
        <route edges="bottom-approaching closed-lane remerging-lane left-exit"/>
    </vehicle>
    <vehicle id="L0-HDV-264" type="L0-HDV-" depart="2904.00">
        <route edges="right-approaching bottom-exit"/>
    </vehicle>
    <vehicle id="L0-HDV-265" type="L0-HDV-" depart="2915.00">
        <route edges="top-approaching right-exit"/>
    </vehicle>
    <vehicle id="L0-HDV-266" type="L0-HDV-" depart="2926.00">