<?xml version="1.0" ?><!-- generated on 03/26/21 01:36:24 by Eclipse SUMO duarouter Version 1.8.0
<configuration xmlns:xsi="http://www.w3.org/2001/XMLSchema-instance" xsi:noNamespaceSchemaLocation="http://sumo.dlr.de/xsd/duarouterConfiguration.xsd">

    <input>
        <net-file value="Roadworks/RoadworksIntersection.net.xml"/>
        <route-files value="trips.trips.xml"/>
    </input>

    <output>
        <output-file value="Roadworks/BaselinePenetration3/Route-Files/L0-HDV-Route.rou.xml"/>
        <alternatives-output value="Roadworks/BaselinePenetration3/Route-Files/L0-HDV-Route.rou.alt.xml"/>
    </output>

    <time>
        <begin value="0"/>
        <end value="3600"/>
    </time>

    <report>
        <no-warnings value="true"/>
        <ignore-errors value="true"/>
        <no-step-log value="true"/>
    </report>

</configuration>
--><routes xmlns:xsi="http://www.w3.org/2001/XMLSchema-instance" xsi:noNamespaceSchemaLocation="http://sumo.dlr.de/xsd/routes_file.xsd">
    <vehicle id="L0-HDV-2" type="L0-HDV-" depart="12.40">
        <route edges="right-approaching closed-lane remerging-lane left-exit"/>
    </vehicle>
    <vehicle id="L0-HDV-3" type="L0-HDV-" depart="18.60">
        <route edges="top-approaching closed-lane remerging-lane left-exit"/>
    </vehicle>
    <vehicle id="L0-HDV-4" type="L0-HDV-Straight-" depart="24.80">
        <route edges="left-long-approaching preparation left-short-approaching right-exit"/>
    </vehicle>
    <vehicle id="L0-HDV-5" type="L0-HDV-" depart="31.00">
        <route edges="top-approaching right-exit"/>
    </vehicle>
    <vehicle id="L0-HDV-6" type="L0-HDV-Left-" depart="37.20">
        <route edges="left-long-approaching preparation"/>
    </vehicle>
    <vehicle id="L0-HDV-7" type="L0-HDV-" depart="43.40">
        <route edges="right-approaching closed-lane remerging-lane left-exit"/>
    </vehicle>
    <vehicle id="L0-HDV-10" type="L0-HDV-Straight-" depart="62.00">
        <route edges="left-long-approaching preparation left-short-approaching right-exit"/>
    </vehicle>
    <vehicle id="L0-HDV-11" type="L0-HDV-" depart="68.20">
        <route edges="top-approaching right-exit"/>
    </vehicle>
    <vehicle id="L0-HDV-12" type="L0-HDV-" depart="74.40">
        <route edges="left-long-approaching preparation left-short-approaching bottom-exit"/>
    </vehicle>
    <vehicle id="L0-HDV-13" type="L0-HDV-Straight-" depart="80.60">
        <route edges="left-long-approaching preparation left-short-approaching right-exit"/>
    </vehicle>
    <vehicle id="L0-HDV-15" type="L0-HDV-Left-" depart="93.00">
        <route edges="left-long-approaching preparation"/>
    </vehicle>
    <vehicle id="L0-HDV-16" type="L0-HDV-Left-" depart="99.20">
        <route edges="left-long-approaching preparation"/>
    </vehicle>
    <vehicle id="L0-HDV-17" type="L0-HDV-" depart="105.40">
        <route edges="right-approaching bottom-exit"/>
    </vehicle>
    <vehicle id="L0-HDV-18" type="L0-HDV-" depart="111.60">
        <route edges="right-approaching closed-lane remerging-lane left-exit"/>
    </vehicle>
    <vehicle id="L0-HDV-19" type="L0-HDV-" depart="117.80">
        <route edges="top-approaching right-exit"/>
    </vehicle>
    <vehicle id="L0-HDV-20" type="L0-HDV-" depart="124.00">
        <route edges="bottom-approaching closed-lane remerging-lane left-exit"/>
    </vehicle>
    <vehicle id="L0-HDV-21" type="L0-HDV-" depart="130.20">
        <route edges="top-approaching bottom-exit"/>
    </vehicle>
    <vehicle id="L0-HDV-22" type="L0-HDV-Left-" depart="136.40">
        <route edges="left-long-approaching preparation"/>
    </vehicle>
    <vehicle id="L0-HDV-23" type="L0-HDV-" depart="142.60">
        <route edges="bottom-approaching right-exit"/>
    </vehicle>
    <vehicle id="L0-HDV-24" type="L0-HDV-" depart="148.80">
        <route edges="bottom-approaching top-exit"/>
    </vehicle>
    <vehicle id="L0-HDV-25" type="L0-HDV-" depart="155.00">
        <route edges="top-approaching closed-lane remerging-lane left-exit"/>
    </vehicle>
    <vehicle id="L0-HDV-26" type="L0-HDV-" depart="161.20">
        <route edges="bottom-approaching closed-lane remerging-lane left-exit"/>
    </vehicle>
    <vehicle id="L0-HDV-27" type="L0-HDV-" depart="167.40">
        <route edges="right-approaching top-exit"/>
    </vehicle>
    <vehicle id="L0-HDV-28" type="L0-HDV-" depart="173.60">
        <route edges="bottom-approaching right-exit"/>
    </vehicle>
    <vehicle id="L0-HDV-30" type="L0-HDV-" depart="186.00">
        <route edges="top-approaching right-exit"/>
    </vehicle>
    <vehicle id="L0-HDV-31" type="L0-HDV-" depart="192.20">
        <route edges="top-approaching right-exit"/>
    </vehicle>
    <vehicle id="L0-HDV-32" type="L0-HDV-" depart="198.40">
        <route edges="right-approaching closed-lane remerging-lane left-exit"/>
    </vehicle>
    <vehicle id="L0-HDV-33" type="L0-HDV-" depart="204.60">
        <route edges="right-approaching closed-lane remerging-lane left-exit"/>
    </vehicle>
    <vehicle id="L0-HDV-34" type="L0-HDV-" depart="210.80">
        <route edges="right-approaching closed-lane remerging-lane left-exit"/>
    </vehicle>
    <vehicle id="L0-HDV-37" type="L0-HDV-" depart="229.40">
        <route edges="left-long-approaching preparation left-short-approaching bottom-exit"/>
    </vehicle>
    <vehicle id="L0-HDV-41" type="L0-HDV-" depart="254.20">
        <route edges="right-approaching closed-lane remerging-lane left-exit"/>
    </vehicle>
    <vehicle id="L0-HDV-42" type="L0-HDV-" depart="260.40">
        <route edges="right-approaching closed-lane remerging-lane left-exit"/>
    </vehicle>
    <vehicle id="L0-HDV-44" type="L0-HDV-" depart="272.80">
        <route edges="top-approaching right-exit"/>
    </vehicle>
    <vehicle id="L0-HDV-45" type="L0-HDV-" depart="279.00">
        <route edges="top-approaching right-exit"/>
    </vehicle>
    <vehicle id="L0-HDV-46" type="L0-HDV-Straight-" depart="285.20">
        <route edges="left-long-approaching preparation left-short-approaching right-exit"/>
    </vehicle>
    <vehicle id="L0-HDV-48" type="L0-HDV-" depart="297.60">
        <route edges="top-approaching bottom-exit"/>
    </vehicle>
    <vehicle id="L0-HDV-49" type="L0-HDV-" depart="303.80">
        <route edges="right-approaching closed-lane remerging-lane left-exit"/>
    </vehicle>
    <vehicle id="L0-HDV-50" type="L0-HDV-" depart="310.00">
        <route edges="right-approaching top-exit"/>
    </vehicle>
    <vehicle id="L0-HDV-51" type="L0-HDV-" depart="316.20">
        <route edges="bottom-approaching right-exit"/>
    </vehicle>
    <vehicle id="L0-HDV-53" type="L0-HDV-" depart="328.60">
        <route edges="top-approaching closed-lane remerging-lane left-exit"/>
    </vehicle>
    <vehicle id="L0-HDV-54" type="L0-HDV-" depart="334.80">
        <route edges="top-approaching bottom-exit"/>
    </vehicle>
    <vehicle id="L0-HDV-55" type="L0-HDV-" depart="341.00">
        <route edges="bottom-approaching right-exit"/>
    </vehicle>
    <vehicle id="L0-HDV-56" type="L0-HDV-" depart="347.20">
        <route edges="bottom-approaching right-exit"/>
    </vehicle>
    <vehicle id="L0-HDV-57" type="L0-HDV-" depart="353.40">
        <route edges="top-approaching right-exit"/>
    </vehicle>
    <vehicle id="L0-HDV-58" type="L0-HDV-" depart="359.60">
        <route edges="right-approaching bottom-exit"/>
    </vehicle>
    <vehicle id="L0-HDV-60" type="L0-HDV-" depart="372.00">
        <route edges="right-approaching closed-lane remerging-lane left-exit"/>
    </vehicle>
    <vehicle id="L0-HDV-61" type="L0-HDV-Left-" depart="378.20">
        <route edges="left-long-approaching preparation"/>
    </vehicle>
    <vehicle id="L0-HDV-63" type="L0-HDV-" depart="390.60">
        <route edges="top-approaching bottom-exit"/>
    </vehicle>
    <vehicle id="L0-HDV-66" type="L0-HDV-" depart="409.20">
        <route edges="bottom-approaching closed-lane remerging-lane left-exit"/>
    </vehicle>
    <vehicle id="L0-HDV-67" type="L0-HDV-" depart="415.40">
        <route edges="bottom-approaching closed-lane remerging-lane left-exit"/>
    </vehicle>
    <vehicle id="L0-HDV-68" type="L0-HDV-" depart="421.60">
        <route edges="bottom-approaching right-exit"/>
    </vehicle>
    <vehicle id="L0-HDV-69" type="L0-HDV-" depart="427.80">
        <route edges="left-long-approaching preparation left-short-approaching bottom-exit"/>
    </vehicle>
    <vehicle id="L0-HDV-70" type="L0-HDV-" depart="434.00">
        <route edges="left-long-approaching preparation left-short-approaching bottom-exit"/>
    </vehicle>
    <vehicle id="L0-HDV-71" type="L0-HDV-" depart="440.20">
        <route edges="bottom-approaching top-exit"/>
    </vehicle>
    <vehicle id="L0-HDV-72" type="L0-HDV-" depart="446.40">
        <route edges="bottom-approaching closed-lane remerging-lane left-exit"/>
    </vehicle>
    <vehicle id="L0-HDV-73" type="L0-HDV-" depart="452.60">
        <route edges="right-approaching top-exit"/>
    </vehicle>
    <vehicle id="L0-HDV-74" type="L0-HDV-" depart="458.80">
        <route edges="top-approaching bottom-exit"/>
    </vehicle>
    <vehicle id="L0-HDV-75" type="L0-HDV-" depart="465.00">
        <route edges="right-approaching top-exit"/>
    </vehicle>
    <vehicle id="L0-HDV-76" type="L0-HDV-" depart="471.20">
        <route edges="bottom-approaching right-exit"/>
    </vehicle>
    <vehicle id="L0-HDV-77" type="L0-HDV-" depart="477.40">
        <route edges="top-approaching closed-lane remerging-lane left-exit"/>
    </vehicle>
    <vehicle id="L0-HDV-78" type="L0-HDV-Straight-" depart="483.60">
        <route edges="left-long-approaching preparation left-short-approaching right-exit"/>
    </vehicle>
    <vehicle id="L0-HDV-79" type="L0-HDV-" depart="489.80">
        <route edges="left-long-approaching preparation left-short-approaching bottom-exit"/>
    </vehicle>
    <vehicle id="L0-HDV-83" type="L0-HDV-" depart="514.60">
        <route edges="top-approaching closed-lane remerging-lane left-exit"/>
    </vehicle>
    <vehicle id="L0-HDV-84" type="L0-HDV-" depart="520.80">
        <route edges="right-approaching bottom-exit"/>
    </vehicle>
    <vehicle id="L0-HDV-85" type="L0-HDV-" depart="527.00">
        <route edges="right-approaching closed-lane remerging-lane left-exit"/>
    </vehicle>
    <vehicle id="L0-HDV-86" type="L0-HDV-" depart="533.20">
        <route edges="bottom-approaching closed-lane remerging-lane left-exit"/>
    </vehicle>
    <vehicle id="L0-HDV-87" type="L0-HDV-" depart="539.40">
        <route edges="bottom-approaching top-exit"/>
    </vehicle>
    <vehicle id="L0-HDV-89" type="L0-HDV-Left-" depart="551.80">
        <route edges="left-long-approaching preparation"/>
    </vehicle>
    <vehicle id="L0-HDV-91" type="L0-HDV-" depart="564.20">
        <route edges="right-approaching closed-lane remerging-lane left-exit"/>
    </vehicle>
    <vehicle id="L0-HDV-92" type="L0-HDV-Straight-" depart="570.40">
        <route edges="left-long-approaching preparation left-short-approaching right-exit"/>
    </vehicle>
    <vehicle id="L0-HDV-94" type="L0-HDV-" depart="582.80">
        <route edges="left-long-approaching preparation left-short-approaching bottom-exit"/>
    </vehicle>
    <vehicle id="L0-HDV-95" type="L0-HDV-" depart="589.00">
        <route edges="right-approaching closed-lane remerging-lane left-exit"/>
    </vehicle>
    <vehicle id="L0-HDV-96" type="L0-HDV-" depart="595.20">
        <route edges="top-approaching right-exit"/>
    </vehicle>
    <vehicle id="L0-HDV-98" type="L0-HDV-" depart="607.60">
        <route edges="right-approaching closed-lane remerging-lane left-exit"/>
    </vehicle>
    <vehicle id="L0-HDV-99" type="L0-HDV-" depart="613.80">
        <route edges="right-approaching bottom-exit"/>
    </vehicle>
    <vehicle id="L0-HDV-101" type="L0-HDV-" depart="626.20">
        <route edges="bottom-approaching right-exit"/>
    </vehicle>
    <vehicle id="L0-HDV-102" type="L0-HDV-Straight-" depart="632.40">
        <route edges="left-long-approaching preparation left-short-approaching right-exit"/>
    </vehicle>
    <vehicle id="L0-HDV-105" type="L0-HDV-Left-" depart="651.00">
        <route edges="left-long-approaching preparation"/>
    </vehicle>
    <vehicle id="L0-HDV-107" type="L0-HDV-" depart="663.40">
        <route edges="bottom-approaching top-exit"/>
    </vehicle>
    <vehicle id="L0-HDV-108" type="L0-HDV-" depart="669.60">
        <route edges="right-approaching bottom-exit"/>
    </vehicle>
    <vehicle id="L0-HDV-109" type="L0-HDV-" depart="675.80">
        <route edges="right-approaching top-exit"/>
    </vehicle>
    <vehicle id="L0-HDV-110" type="L0-HDV-Straight-" depart="682.00">
        <route edges="left-long-approaching preparation left-short-approaching right-exit"/>
    </vehicle>
    <vehicle id="L0-HDV-111" type="L0-HDV-" depart="688.20">
        <route edges="left-long-approaching preparation left-short-approaching bottom-exit"/>
    </vehicle>
    <vehicle id="L0-HDV-112" type="L0-HDV-" depart="694.40">
        <route edges="right-approaching bottom-exit"/>
    </vehicle>
    <vehicle id="L0-HDV-113" type="L0-HDV-" depart="700.60">
        <route edges="top-approaching right-exit"/>
    </vehicle>
    <vehicle id="L0-HDV-115" type="L0-HDV-" depart="713.00">
        <route edges="right-approaching top-exit"/>
    </vehicle>
    <vehicle id="L0-HDV-116" type="L0-HDV-Left-" depart="719.20">
        <route edges="left-long-approaching preparation"/>
    </vehicle>
    <vehicle id="L0-HDV-117" type="L0-HDV-" depart="725.40">
        <route edges="bottom-approaching top-exit"/>
    </vehicle>
    <vehicle id="L0-HDV-118" type="L0-HDV-" depart="731.60">
        <route edges="left-long-approaching preparation left-short-approaching bottom-exit"/>
    </vehicle>
    <vehicle id="L0-HDV-121" type="L0-HDV-" depart="750.20">
        <route edges="bottom-approaching right-exit"/>
    </vehicle>
    <vehicle id="L0-HDV-122" type="L0-HDV-" depart="756.40">
        <route edges="right-approaching closed-lane remerging-lane left-exit"/>
    </vehicle>
    <vehicle id="L0-HDV-123" type="L0-HDV-" depart="762.60">
        <route edges="top-approaching closed-lane remerging-lane left-exit"/>
    </vehicle>
    <vehicle id="L0-HDV-127" type="L0-HDV-" depart="787.40">
        <route edges="top-approaching bottom-exit"/>
    </vehicle>
    <vehicle id="L0-HDV-130" type="L0-HDV-" depart="806.00">
        <route edges="top-approaching right-exit"/>
    </vehicle>
    <vehicle id="L0-HDV-131" type="L0-HDV-Straight-" depart="812.20">
        <route edges="left-long-approaching preparation left-short-approaching right-exit"/>
    </vehicle>
    <vehicle id="L0-HDV-132" type="L0-HDV-" depart="818.40">
        <route edges="bottom-approaching right-exit"/>
    </vehicle>
    <vehicle id="L0-HDV-134" type="L0-HDV-Left-" depart="830.80">
        <route edges="left-long-approaching preparation"/>
    </vehicle>
    <vehicle id="L0-HDV-135" type="L0-HDV-" depart="837.00">
        <route edges="right-approaching closed-lane remerging-lane left-exit"/>
    </vehicle>
    <vehicle id="L0-HDV-136" type="L0-HDV-" depart="843.20">
        <route edges="right-approaching bottom-exit"/>
    </vehicle>
    <vehicle id="L0-HDV-137" type="L0-HDV-" depart="849.40">
        <route edges="bottom-approaching top-exit"/>
    </vehicle>
    <vehicle id="L0-HDV-139" type="L0-HDV-" depart="861.80">
        <route edges="right-approaching closed-lane remerging-lane left-exit"/>
    </vehicle>
    <vehicle id="L0-HDV-140" type="L0-HDV-" depart="868.00">
        <route edges="left-long-approaching preparation left-short-approaching bottom-exit"/>
    </vehicle>
    <vehicle id="L0-HDV-142" type="L0-HDV-" depart="880.40">
        <route edges="right-approaching bottom-exit"/>
    </vehicle>
    <vehicle id="L0-HDV-144" type="L0-HDV-" depart="892.80">
        <route edges="left-long-approaching preparation left-short-approaching bottom-exit"/>
    </vehicle>
    <vehicle id="L0-HDV-145" type="L0-HDV-" depart="899.00">
        <route edges="top-approaching closed-lane remerging-lane left-exit"/>
    </vehicle>
    <vehicle id="L0-HDV-148" type="L0-HDV-" depart="917.60">
        <route edges="right-approaching closed-lane remerging-lane left-exit"/>
    </vehicle>
    <vehicle id="L0-HDV-149" type="L0-HDV-Straight-" depart="923.80">
        <route edges="left-long-approaching preparation left-short-approaching right-exit"/>
    </vehicle>
    <vehicle id="L0-HDV-151" type="L0-HDV-" depart="936.20">
        <route edges="right-approaching closed-lane remerging-lane left-exit"/>
    </vehicle>
    <vehicle id="L0-HDV-152" type="L0-HDV-" depart="942.40">
        <route edges="top-approaching right-exit"/>
    </vehicle>
    <vehicle id="L0-HDV-154" type="L0-HDV-" depart="954.80">
        <route edges="right-approaching bottom-exit"/>
    </vehicle>
    <vehicle id="L0-HDV-155" type="L0-HDV-" depart="961.00">
        <route edges="bottom-approaching closed-lane remerging-lane left-exit"/>
    </vehicle>
    <vehicle id="L0-HDV-156" type="L0-HDV-" depart="967.20">
        <route edges="right-approaching closed-lane remerging-lane left-exit"/>
    </vehicle>
    <vehicle id="L0-HDV-157" type="L0-HDV-Straight-" depart="973.40">
        <route edges="left-long-approaching preparation left-short-approaching right-exit"/>
    </vehicle>
    <vehicle id="L0-HDV-158" type="L0-HDV-" depart="979.60">
        <route edges="right-approaching closed-lane remerging-lane left-exit"/>
    </vehicle>
    <vehicle id="L0-HDV-159" type="L0-HDV-Left-" depart="985.80">
        <route edges="left-long-approaching preparation"/>
    </vehicle>
    <vehicle id="L0-HDV-160" type="L0-HDV-Left-" depart="992.00">
        <route edges="left-long-approaching preparation"/>
    </vehicle>
    <vehicle id="L0-HDV-162" type="L0-HDV-" depart="1004.40">
        <route edges="bottom-approaching top-exit"/>
    </vehicle>
    <vehicle id="L0-HDV-163" type="L0-HDV-" depart="1010.60">
        <route edges="right-approaching top-exit"/>
    </vehicle>
    <vehicle id="L0-HDV-164" type="L0-HDV-Straight-" depart="1016.80">
        <route edges="left-long-approaching preparation left-short-approaching right-exit"/>
    </vehicle>
    <vehicle id="L0-HDV-165" type="L0-HDV-" depart="1023.00">
        <route edges="bottom-approaching closed-lane remerging-lane left-exit"/>
    </vehicle>
    <vehicle id="L0-HDV-167" type="L0-HDV-" depart="1035.40">
        <route edges="top-approaching bottom-exit"/>
    </vehicle>
    <vehicle id="L0-HDV-169" type="L0-HDV-Straight-" depart="1047.80">
        <route edges="left-long-approaching preparation left-short-approaching right-exit"/>
    </vehicle>
    <vehicle id="L0-HDV-170" type="L0-HDV-" depart="1054.00">
        <route edges="bottom-approaching top-exit"/>
    </vehicle>
    <vehicle id="L0-HDV-171" type="L0-HDV-" depart="1060.20">
        <route edges="top-approaching bottom-exit"/>
    </vehicle>
    <vehicle id="L0-HDV-172" type="L0-HDV-Straight-" depart="1066.40">
        <route edges="left-long-approaching preparation left-short-approaching right-exit"/>
    </vehicle>
    <vehicle id="L0-HDV-173" type="L0-HDV-" depart="1072.60">
        <route edges="top-approaching closed-lane remerging-lane left-exit"/>
    </vehicle>
    <vehicle id="L0-HDV-174" type="L0-HDV-" depart="1078.80">
        <route edges="top-approaching closed-lane remerging-lane left-exit"/>
    </vehicle>
    <vehicle id="L0-HDV-175" type="L0-HDV-" depart="1085.00">
        <route edges="left-long-approaching preparation"/>
    </vehicle>
    <vehicle id="L0-HDV-176" type="L0-HDV-" depart="1091.20">
        <route edges="right-approaching bottom-exit"/>
    </vehicle>
    <vehicle id="L0-HDV-177" type="L0-HDV-" depart="1097.40">
        <route edges="right-approaching bottom-exit"/>
    </vehicle>
    <vehicle id="L0-HDV-178" type="L0-HDV-Left-" depart="1103.60">
        <route edges="left-long-approaching preparation"/>
    </vehicle>
    <vehicle id="L0-HDV-181" type="L0-HDV-Left-" depart="1122.20">
        <route edges="left-long-approaching preparation"/>
    </vehicle>
    <vehicle id="L0-HDV-182" type="L0-HDV-" depart="1128.40">
        <route edges="top-approaching right-exit"/>
    </vehicle>
    <vehicle id="L0-HDV-183" type="L0-HDV-" depart="1134.60">
        <route edges="right-approaching top-exit"/>
    </vehicle>
    <vehicle id="L0-HDV-185" type="L0-HDV-" depart="1147.00">
        <route edges="top-approaching bottom-exit"/>
    </vehicle>
    <vehicle id="L0-HDV-187" type="L0-HDV-" depart="1159.40">
        <route edges="bottom-approaching top-exit"/>
    </vehicle>
    <vehicle id="L0-HDV-188" type="L0-HDV-" depart="1165.60">
        <route edges="left-long-approaching preparation left-short-approaching bottom-exit"/>
    </vehicle>
    <vehicle id="L0-HDV-189" type="L0-HDV-" depart="1171.80">
        <route edges="bottom-approaching right-exit"/>
    </vehicle>
    <vehicle id="L0-HDV-190" type="L0-HDV-" depart="1178.00">
        <route edges="top-approaching right-exit"/>
    </vehicle>
    <vehicle id="L0-HDV-194" type="L0-HDV-" depart="1202.80">
        <route edges="top-approaching right-exit"/>
    </vehicle>
    <vehicle id="L0-HDV-195" type="L0-HDV-" depart="1209.00">
        <route edges="top-approaching bottom-exit"/>
    </vehicle>
    <vehicle id="L0-HDV-197" type="L0-HDV-" depart="1221.40">
        <route edges="top-approaching closed-lane remerging-lane left-exit"/>
    </vehicle>
    <vehicle id="L0-HDV-198" type="L0-HDV-" depart="1227.60">
        <route edges="top-approaching closed-lane remerging-lane left-exit"/>
    </vehicle>
    <vehicle id="L0-HDV-199" type="L0-HDV-" depart="1233.80">
        <route edges="right-approaching top-exit"/>
    </vehicle>
    <vehicle id="L0-HDV-200" type="L0-HDV-" depart="1240.00">
        <route edges="top-approaching right-exit"/>
    </vehicle>
    <vehicle id="L0-HDV-202" type="L0-HDV-" depart="1252.40">
        <route edges="right-approaching closed-lane remerging-lane left-exit"/>
    </vehicle>
    <vehicle id="L0-HDV-203" type="L0-HDV-" depart="1258.60">
        <route edges="bottom-approaching top-exit"/>
    </vehicle>
    <vehicle id="L0-HDV-204" type="L0-HDV-" depart="1264.80">
        <route edges="top-approaching closed-lane remerging-lane left-exit"/>
    </vehicle>
    <vehicle id="L0-HDV-205" type="L0-HDV-Left-" depart="1271.00">
        <route edges="left-long-approaching preparation"/>
    </vehicle>
    <vehicle id="L0-HDV-206" type="L0-HDV-" depart="1277.20">
        <route edges="bottom-approaching right-exit"/>
    </vehicle>
    <vehicle id="L0-HDV-207" type="L0-HDV-" depart="1283.40">
        <route edges="bottom-approaching closed-lane remerging-lane left-exit"/>
    </vehicle>
    <vehicle id="L0-HDV-208" type="L0-HDV-" depart="1289.60">
        <route edges="top-approaching bottom-exit"/>
    </vehicle>
    <vehicle id="L0-HDV-209" type="L0-HDV-" depart="1295.80">
        <route edges="bottom-approaching closed-lane remerging-lane left-exit"/>
    </vehicle>
    <vehicle id="L0-HDV-210" type="L0-HDV-Left-" depart="1302.00">
        <route edges="left-long-approaching preparation"/>
    </vehicle>
    <vehicle id="L0-HDV-212" type="L0-HDV-" depart="1314.40">
        <route edges="bottom-approaching top-exit"/>
    </vehicle>
    <vehicle id="L0-HDV-213" type="L0-HDV-Straight-" depart="1320.60">
        <route edges="left-long-approaching preparation left-short-approaching right-exit"/>
    </vehicle>
    <vehicle id="L0-HDV-214" type="L0-HDV-" depart="1326.80">
        <route edges="left-long-approaching preparation left-short-approaching bottom-exit"/>
    </vehicle>
    <vehicle id="L0-HDV-215" type="L0-HDV-" depart="1333.00">
        <route edges="left-long-approaching preparation left-short-approaching bottom-exit"/>
    </vehicle>
    <vehicle id="L0-HDV-216" type="L0-HDV-" depart="1339.20">
        <route edges="bottom-approaching right-exit"/>
    </vehicle>
    <vehicle id="L0-HDV-217" type="L0-HDV-" depart="1345.40">
        <route edges="right-approaching bottom-exit"/>
    </vehicle>
    <vehicle id="L0-HDV-218" type="L0-HDV-" depart="1351.60">
        <route edges="right-approaching closed-lane remerging-lane left-exit"/>
    </vehicle>
    <vehicle id="L0-HDV-219" type="L0-HDV-Left-" depart="1357.80">
        <route edges="left-long-approaching preparation"/>
    </vehicle>
    <vehicle id="L0-HDV-220" type="L0-HDV-Left-" depart="1364.00">
        <route edges="left-long-approaching preparation"/>
    </vehicle>
    <vehicle id="L0-HDV-221" type="L0-HDV-" depart="1370.20">
        <route edges="right-approaching closed-lane remerging-lane left-exit"/>
    </vehicle>
    <vehicle id="L0-HDV-222" type="L0-HDV-" depart="1376.40">
        <route edges="right-approaching closed-lane remerging-lane left-exit"/>
    </vehicle>
    <vehicle id="L0-HDV-223" type="L0-HDV-" depart="1382.60">
        <route edges="bottom-approaching right-exit"/>
    </vehicle>
    <vehicle id="L0-HDV-224" type="L0-HDV-" depart="1388.80">
        <route edges="right-approaching top-exit"/>
    </vehicle>
    <vehicle id="L0-HDV-225" type="L0-HDV-" depart="1395.00">
        <route edges="bottom-approaching top-exit"/>
    </vehicle>
    <vehicle id="L0-HDV-227" type="L0-HDV-" depart="1407.40">
        <route edges="top-approaching right-exit"/>
    </vehicle>
    <vehicle id="L0-HDV-228" type="L0-HDV-" depart="1413.60">
        <route edges="top-approaching right-exit"/>
    </vehicle>
    <vehicle id="L0-HDV-229" type="L0-HDV-" depart="1419.80">
        <route edges="top-approaching bottom-exit"/>
    </vehicle>
    <vehicle id="L0-HDV-230" type="L0-HDV-" depart="1426.00">
        <route edges="top-approaching closed-lane remerging-lane left-exit"/>
    </vehicle>
    <vehicle id="L0-HDV-231" type="L0-HDV-" depart="1432.20">
        <route edges="top-approaching closed-lane remerging-lane left-exit"/>
    </vehicle>
    <vehicle id="L0-HDV-232" type="L0-HDV-" depart="1438.40">
        <route edges="top-approaching bottom-exit"/>
    </vehicle>
    <vehicle id="L0-HDV-233" type="L0-HDV-" depart="1444.60">
        <route edges="bottom-approaching top-exit"/>
    </vehicle>
    <vehicle id="L0-HDV-234" type="L0-HDV-Left-" depart="1450.80">
        <route edges="left-long-approaching preparation"/>
    </vehicle>
    <vehicle id="L0-HDV-235" type="L0-HDV-" depart="1457.00">
        <route edges="top-approaching right-exit"/>
    </vehicle>
    <vehicle id="L0-HDV-236" type="L0-HDV-" depart="1463.20">
        <route edges="right-approaching bottom-exit"/>
    </vehicle>
    <vehicle id="L0-HDV-237" type="L0-HDV-" depart="1469.40">
        <route edges="bottom-approaching top-exit"/>
    </vehicle>
    <vehicle id="L0-HDV-239" type="L0-HDV-" depart="1481.80">
        <route edges="right-approaching closed-lane remerging-lane left-exit"/>
    </vehicle>
    <vehicle id="L0-HDV-240" type="L0-HDV-" depart="1488.00">
        <route edges="left-long-approaching preparation left-short-approaching bottom-exit"/>
    </vehicle>
    <vehicle id="L0-HDV-241" type="L0-HDV-Straight-" depart="1494.20">
        <route edges="left-long-approaching preparation left-short-approaching right-exit"/>
    </vehicle>
    <vehicle id="L0-HDV-243" type="L0-HDV-" depart="1506.60">
        <route edges="left-long-approaching preparation left-short-approaching bottom-exit"/>
    </vehicle>
    <vehicle id="L0-HDV-244" type="L0-HDV-" depart="1512.80">
        <route edges="top-approaching right-exit"/>
    </vehicle>
    <vehicle id="L0-HDV-245" type="L0-HDV-" depart="1519.00">
        <route edges="bottom-approaching closed-lane remerging-lane left-exit"/>
    </vehicle>
    <vehicle id="L0-HDV-246" type="L0-HDV-" depart="1525.20">
        <route edges="right-approaching bottom-exit"/>
    </vehicle>
    <vehicle id="L0-HDV-248" type="L0-HDV-" depart="1537.60">
        <route edges="right-approaching bottom-exit"/>
    </vehicle>
    <vehicle id="L0-HDV-249" type="L0-HDV-" depart="1543.80">
        <route edges="bottom-approaching closed-lane remerging-lane left-exit"/>
    </vehicle>
    <vehicle id="L0-HDV-250" type="L0-HDV-" depart="1550.00">
        <route edges="bottom-approaching closed-lane remerging-lane left-exit"/>
    </vehicle>
    <vehicle id="L0-HDV-251" type="L0-HDV-" depart="1556.20">
        <route edges="bottom-approaching top-exit"/>
    </vehicle>
    <vehicle id="L0-HDV-252" type="L0-HDV-" depart="1562.40">
        <route edges="top-approaching bottom-exit"/>
    </vehicle>
    <vehicle id="L0-HDV-253" type="L0-HDV-" depart="1568.60">
        <route edges="top-approaching bottom-exit"/>
    </vehicle>
    <vehicle id="L0-HDV-254" type="L0-HDV-" depart="1574.80">
        <route edges="bottom-approaching right-exit"/>
    </vehicle>
    <vehicle id="L0-HDV-255" type="L0-HDV-" depart="1581.00">
        <route edges="top-approaching bottom-exit"/>
    </vehicle>
    <vehicle id="L0-HDV-256" type="L0-HDV-" depart="1587.20">
        <route edges="bottom-approaching closed-lane remerging-lane left-exit"/>
    </vehicle>
    <vehicle id="L0-HDV-257" type="L0-HDV-" depart="1593.40">
        <route edges="bottom-approaching right-exit"/>
    </vehicle>
    <vehicle id="L0-HDV-258" type="L0-HDV-" depart="1599.60">
        <route edges="top-approaching bottom-exit"/>
    </vehicle>
    <vehicle id="L0-HDV-259" type="L0-HDV-" depart="1605.80">
        <route edges="bottom-approaching closed-lane remerging-lane left-exit"/>
    </vehicle>
    <vehicle id="L0-HDV-260" type="L0-HDV-" depart="1612.00">
        <route edges="top-approaching bottom-exit"/>
    </vehicle>
    <vehicle id="L0-HDV-261" type="L0-HDV-" depart="1618.20">
        <route edges="top-approaching closed-lane remerging-lane left-exit"/>
    </vehicle>
    <vehicle id="L0-HDV-264" type="L0-HDV-" depart="1636.80">