<?xml version="1.0" ?><!-- generated on 04/25/21 15:50:10 by Eclipse SUMO duarouter Version 1.8.0
<configuration xmlns:xsi="http://www.w3.org/2001/XMLSchema-instance" xsi:noNamespaceSchemaLocation="http://sumo.dlr.de/xsd/duarouterConfiguration.xsd">

    <input>
        <net-file value="Roadworks/RoadworksIntersection.net.xml"/>
        <route-files value="trips.trips.xml"/>
    </input>

    <output>
        <output-file value="Roadworks/BaselinePenetration3/Route-Files/L2-AV-Route.rou.xml"/>
        <alternatives-output value="Roadworks/BaselinePenetration3/Route-Files/L2-AV-Route.rou.alt.xml"/>
    </output>

    <time>
        <begin value="0"/>
        <end value="3600"/>
    </time>

    <report>
        <no-warnings value="true"/>
        <ignore-errors value="true"/>
        <no-step-log value="true"/>
    </report>

</configuration>
--><routes xmlns:xsi="http://www.w3.org/2001/XMLSchema-instance" xsi:noNamespaceSchemaLocation="http://sumo.dlr.de/xsd/routes_file.xsd">
    <vehicle id="L2-AV-2" type="L2-AV-" depart="7.00">
        <route edges="bottom-approaching right-exit"/>
    </vehicle>
    <vehicle id="L2-AV-3" type="L2-AV-Left-" depart="10.50">
        <route edges="left-long-approaching preparation"/>
    </vehicle>
    <vehicle id="L2-AV-4" type="L2-AV-Left-" depart="14.00">
        <route edges="left-long-approaching preparation"/>
    </vehicle>
    <vehicle id="L2-AV-5" type="L2-AV-Left-" depart="17.50">
        <route edges="left-long-approaching preparation"/>
    </vehicle>
    <vehicle id="L2-AV-6" type="L2-AV-" depart="21.00">
        <route edges="right-approaching closed-lane remerging-lane left-exit"/>
    </vehicle>
    <vehicle id="L2-AV-8" type="L2-AV-" depart="28.00">
        <route edges="bottom-approaching right-exit"/>
    </vehicle>
    <vehicle id="L2-AV-9" type="L2-AV-" depart="31.50">
        <route edges="top-approaching closed-lane remerging-lane left-exit"/>
    </vehicle>
    <vehicle id="L2-AV-10" type="L2-AV-" depart="35.00">
        <route edges="top-approaching right-exit"/>
    </vehicle>
    <vehicle id="L2-AV-11" type="L2-AV-" depart="38.50">
        <route edges="top-approaching closed-lane remerging-lane left-exit"/>
    </vehicle>
    <vehicle id="L2-AV-12" type="L2-AV-" depart="42.00">
        <route edges="bottom-approaching top-exit"/>
    </vehicle>
    <vehicle id="L2-AV-13" type="L2-AV-" depart="45.50">
        <route edges="top-approaching closed-lane remerging-lane left-exit"/>
    </vehicle>
    <vehicle id="L2-AV-15" type="L2-AV-" depart="52.50">
        <route edges="right-approaching closed-lane remerging-lane left-exit"/>
    </vehicle>
    <vehicle id="L2-AV-16" type="L2-AV-" depart="56.00">
        <route edges="top-approaching right-exit"/>
    </vehicle>
    <vehicle id="L2-AV-17" type="L2-AV-" depart="59.50">
        <route edges="bottom-approaching right-exit"/>
    </vehicle>
    <vehicle id="L2-AV-18" type="L2-AV-Left-" depart="63.00">
        <route edges="left-long-approaching preparation"/>
    </vehicle>
    <vehicle id="L2-AV-19" type="L2-AV-" depart="66.50">
        <route edges="top-approaching right-exit"/>
    </vehicle>
    <vehicle id="L2-AV-22" type="L2-AV-" depart="77.00">
        <route edges="bottom-approaching closed-lane remerging-lane left-exit"/>
    </vehicle>
    <vehicle id="L2-AV-23" type="L2-AV-" depart="80.50">
        <route edges="right-approaching closed-lane remerging-lane left-exit"/>
    </vehicle>
    <vehicle id="L2-AV-24" type="L2-AV-" depart="84.00">
        <route edges="right-approaching bottom-exit"/>
    </vehicle>
    <vehicle id="L2-AV-25" type="L2-AV-" depart="87.50">
        <route edges="top-approaching right-exit"/>
    </vehicle>
    <vehicle id="L2-AV-26" type="L2-AV-" depart="91.00">
        <route edges="bottom-approaching right-exit"/>
    </vehicle>
    <vehicle id="L2-AV-27" type="L2-AV-Right-" depart="94.50">
        <route edges="left-long-approaching preparation left-short-approaching bottom-exit"/>
    </vehicle>
    <vehicle id="L2-AV-28" type="L2-AV-Right-" depart="98.00">
        <route edges="left-long-approaching preparation left-short-approaching bottom-exit"/>
    </vehicle>
    <vehicle id="L2-AV-29" type="L2-AV-" depart="101.50">
        <route edges="bottom-approaching top-exit"/>
    </vehicle>
    <vehicle id="L2-AV-30" type="L2-AV-" depart="105.00">
        <route edges="right-approaching bottom-exit"/>
    </vehicle>
    <vehicle id="L2-AV-31" type="L2-AV-" depart="108.50">
        <route edges="top-approaching bottom-exit"/>
    </vehicle>
    <vehicle id="L2-AV-32" type="L2-AV-Left-" depart="112.00">
        <route edges="left-long-approaching preparation"/>
    </vehicle>
    <vehicle id="L2-AV-33" type="L2-AV-" depart="115.50">
        <route edges="right-approaching closed-lane remerging-lane left-exit"/>
    </vehicle>
    <vehicle id="L2-AV-35" type="L2-AV-" depart="122.50">
        <route edges="bottom-approaching top-exit"/>
    </vehicle>
    <vehicle id="L2-AV-36" type="L2-AV-" depart="126.00">
        <route edges="bottom-approaching closed-lane remerging-lane left-exit"/>
    </vehicle>
    <vehicle id="L2-AV-37" type="L2-AV-" depart="129.50">
        <route edges="right-approaching closed-lane remerging-lane left-exit"/>
    </vehicle>
    <vehicle id="L2-AV-38" type="L2-AV-" depart="133.00">
        <route edges="top-approaching bottom-exit"/>
    </vehicle>
    <vehicle id="L2-AV-40" type="L2-AV-" depart="140.00">
        <route edges="right-approaching top-exit"/>
    </vehicle>
    <vehicle id="L2-AV-41" type="L2-AV-Left-" depart="143.50">
        <route edges="left-long-approaching preparation"/>
    </vehicle>
    <vehicle id="L2-AV-42" type="L2-AV-" depart="147.00">
        <route edges="top-approaching right-exit"/>
    </vehicle>
    <vehicle id="L2-AV-43" type="L2-AV-" depart="150.50">
        <route edges="left-long-approaching preparation left-short-approaching right-exit"/>
    </vehicle>
    <vehicle id="L2-AV-44" type="L2-AV-Right-" depart="154.00">
        <route edges="left-long-approaching preparation left-short-approaching bottom-exit"/>
    </vehicle>
    <vehicle id="L2-AV-45" type="L2-AV-" depart="157.50">
        <route edges="right-approaching closed-lane remerging-lane left-exit"/>
    </vehicle>
    <vehicle id="L2-AV-46" type="L2-AV-Left-" depart="161.00">
        <route edges="left-long-approaching preparation"/>
    </vehicle>
    <vehicle id="L2-AV-48" type="L2-AV-" depart="168.00">
        <route edges="bottom-approaching right-exit"/>
    </vehicle>
    <vehicle id="L2-AV-50" type="L2-AV-Left-" depart="175.00">
        <route edges="left-long-approaching preparation"/>
    </vehicle>
    <vehicle id="L2-AV-52" type="L2-AV-" depart="182.00">
        <route edges="top-approaching right-exit"/>
    </vehicle>
    <vehicle id="L2-AV-54" type="L2-AV-Right-" depart="189.00">
        <route edges="left-long-approaching preparation left-short-approaching bottom-exit"/>
    </vehicle>
    <vehicle id="L2-AV-56" type="L2-AV-" depart="196.00">
        <route edges="top-approaching closed-lane remerging-lane left-exit"/>
    </vehicle>
    <vehicle id="L2-AV-57" type="L2-AV-" depart="199.50">
        <route edges="right-approaching top-exit"/>
    </vehicle>
    <vehicle id="L2-AV-58" type="L2-AV-" depart="203.00">
        <route edges="top-approaching closed-lane remerging-lane left-exit"/>
    </vehicle>
    <vehicle id="L2-AV-59" type="L2-AV-" depart="206.50">
        <route edges="right-approaching closed-lane remerging-lane left-exit"/>
    </vehicle>
    <vehicle id="L2-AV-62" type="L2-AV-Right-" depart="217.00">
        <route edges="left-long-approaching preparation left-short-approaching bottom-exit"/>
    </vehicle>
    <vehicle id="L2-AV-63" type="L2-AV-Right-" depart="220.50">
        <route edges="left-long-approaching preparation left-short-approaching bottom-exit"/>
    </vehicle>
    <vehicle id="L2-AV-64" type="L2-AV-" depart="224.00">
        <route edges="bottom-approaching top-exit"/>
    </vehicle>
    <vehicle id="L2-AV-65" type="L2-AV-" depart="227.50">
        <route edges="bottom-approaching right-exit"/>
    </vehicle>
    <vehicle id="L2-AV-66" type="L2-AV-Left-" depart="231.00">
        <route edges="left-long-approaching preparation"/>
    </vehicle>
    <vehicle id="L2-AV-67" type="L2-AV-" depart="234.50">
        <route edges="top-approaching bottom-exit"/>
    </vehicle>
    <vehicle id="L2-AV-68" type="L2-AV-" depart="238.00">
        <route edges="bottom-approaching top-exit"/>
    </vehicle>
    <vehicle id="L2-AV-69" type="L2-AV-" depart="241.50">
        <route edges="right-approaching closed-lane remerging-lane left-exit"/>
    </vehicle>
    <vehicle id="L2-AV-72" type="L2-AV-" depart="252.00">
        <route edges="bottom-approaching closed-lane remerging-lane left-exit"/>
    </vehicle>
    <vehicle id="L2-AV-73" type="L2-AV-" depart="255.50">
        <route edges="bottom-approaching right-exit"/>
    </vehicle>
    <vehicle id="L2-AV-74" type="L2-AV-" depart="259.00">
        <route edges="right-approaching bottom-exit"/>
    </vehicle>
    <vehicle id="L2-AV-75" type="L2-AV-" depart="262.50">
        <route edges="right-approaching bottom-exit"/>
    </vehicle>
    <vehicle id="L2-AV-76" type="L2-AV-" depart="266.00">
        <route edges="bottom-approaching right-exit"/>
    </vehicle>
    <vehicle id="L2-AV-77" type="L2-AV-Left-" depart="269.50">
        <route edges="left-long-approaching preparation"/>
    </vehicle>
    <vehicle id="L2-AV-79" type="L2-AV-" depart="276.50">
        <route edges="bottom-approaching top-exit"/>
    </vehicle>
    <vehicle id="L2-AV-80" type="L2-AV-" depart="280.00">
        <route edges="bottom-approaching right-exit"/>
    </vehicle>
    <vehicle id="L2-AV-82" type="L2-AV-" depart="287.00">
        <route edges="top-approaching closed-lane remerging-lane left-exit"/>
    </vehicle>
    <vehicle id="L2-AV-83" type="L2-AV-" depart="290.50">
        <route edges="right-approaching top-exit"/>
    </vehicle>
    <vehicle id="L2-AV-84" type="L2-AV-" depart="294.00">
        <route edges="bottom-approaching top-exit"/>
    </vehicle>
    <vehicle id="L2-AV-85" type="L2-AV-" depart="297.50">
        <route edges="top-approaching closed-lane remerging-lane left-exit"/>
    </vehicle>
    <vehicle id="L2-AV-86" type="L2-AV-" depart="301.00">
        <route edges="top-approaching closed-lane remerging-lane left-exit"/>
    </vehicle>
    <vehicle id="L2-AV-87" type="L2-AV-" depart="304.50">
        <route edges="left-long-approaching preparation left-short-approaching right-exit"/>
    </vehicle>
    <vehicle id="L2-AV-88" type="L2-AV-" depart="308.00">
        <route edges="bottom-approaching top-exit"/>
    </vehicle>
    <vehicle id="L2-AV-89" type="L2-AV-" depart="311.50">
        <route edges="top-approaching closed-lane remerging-lane left-exit"/>
    </vehicle>
    <vehicle id="L2-AV-90" type="L2-AV-" depart="315.00">
        <route edges="top-approaching bottom-exit"/>
    </vehicle>
    <vehicle id="L2-AV-91" type="L2-AV-" depart="318.50">
        <route edges="top-approaching closed-lane remerging-lane left-exit"/>
    </vehicle>
    <vehicle id="L2-AV-92" type="L2-AV-" depart="322.00">
        <route edges="top-approaching closed-lane remerging-lane left-exit"/>
    </vehicle>
    <vehicle id="L2-AV-93" type="L2-AV-" depart="325.50">
        <route edges="top-approaching bottom-exit"/>
    </vehicle>
    <vehicle id="L2-AV-94" type="L2-AV-" depart="329.00">
        <route edges="bottom-approaching top-exit"/>
    </vehicle>
    <vehicle id="L2-AV-97" type="L2-AV-Right-" depart="339.50">
        <route edges="left-long-approaching preparation left-short-approaching bottom-exit"/>
    </vehicle>
    <vehicle id="L2-AV-99" type="L2-AV-" depart="346.50">
        <route edges="top-approaching right-exit"/>
    </vehicle>
    <vehicle id="L2-AV-100" type="L2-AV-Right-" depart="350.00">
        <route edges="left-long-approaching preparation left-short-approaching bottom-exit"/>
    </vehicle>
    <vehicle id="L2-AV-101" type="L2-AV-" depart="353.50">
        <route edges="right-approaching bottom-exit"/>
    </vehicle>
    <vehicle id="L2-AV-102" type="L2-AV-" depart="357.00">
        <route edges="right-approaching closed-lane remerging-lane left-exit"/>
    </vehicle>
    <vehicle id="L2-AV-103" type="L2-AV-Right-" depart="360.50">
        <route edges="left-long-approaching preparation left-short-approaching bottom-exit"/>
    </vehicle>
    <vehicle id="L2-AV-104" type="L2-AV-" depart="364.00">
        <route edges="bottom-approaching right-exit"/>
    </vehicle>
    <vehicle id="L2-AV-105" type="L2-AV-" depart="367.50">
        <route edges="bottom-approaching right-exit"/>
    </vehicle>
    <vehicle id="L2-AV-106" type="L2-AV-" depart="371.00">
        <route edges="bottom-approaching closed-lane remerging-lane left-exit"/>
    </vehicle>
    <vehicle id="L2-AV-107" type="L2-AV-" depart="374.50">
        <route edges="bottom-approaching right-exit"/>
    </vehicle>
    <vehicle id="L2-AV-108" type="L2-AV-Right-" depart="378.00">
        <route edges="left-long-approaching preparation left-short-approaching bottom-exit"/>
    </vehicle>
    <vehicle id="L2-AV-109" type="L2-AV-" depart="381.50">
        <route edges="bottom-approaching right-exit"/>
    </vehicle>
    <vehicle id="L2-AV-110" type="L2-AV-" depart="385.00">
        <route edges="top-approaching closed-lane remerging-lane left-exit"/>
    </vehicle>
    <vehicle id="L2-AV-111" type="L2-AV-" depart="388.50">
        <route edges="bottom-approaching closed-lane remerging-lane left-exit"/>
    </vehicle>
    <vehicle id="L2-AV-112" type="L2-AV-" depart="392.00">
        <route edges="bottom-approaching right-exit"/>
    </vehicle>
    <vehicle id="L2-AV-113" type="L2-AV-" depart="395.50">
        <route edges="top-approaching right-exit"/>
    </vehicle>
    <vehicle id="L2-AV-114" type="L2-AV-" depart="399.00">
        <route edges="bottom-approaching closed-lane remerging-lane left-exit"/>
    </vehicle>
    <vehicle id="L2-AV-116" type="L2-AV-Left-" depart="406.00">
        <route edges="left-long-approaching preparation"/>
    </vehicle>
    <vehicle id="L2-AV-119" type="L2-AV-" depart="416.50">
        <route edges="top-approaching closed-lane remerging-lane left-exit"/>
    </vehicle>
    <vehicle id="L2-AV-120" type="L2-AV-" depart="420.00">
        <route edges="right-approaching top-exit"/>
    </vehicle>
    <vehicle id="L2-AV-121" type="L2-AV-" depart="423.50">
        <route edges="bottom-approaching right-exit"/>
    </vehicle>
    <vehicle id="L2-AV-122" type="L2-AV-Right-" depart="427.00">
        <route edges="left-long-approaching preparation left-short-approaching bottom-exit"/>
    </vehicle>
    <vehicle id="L2-AV-123" type="L2-AV-" depart="430.50">
        <route edges="bottom-approaching top-exit"/>
    </vehicle>
    <vehicle id="L2-AV-124" type="L2-AV-" depart="434.00">
        <route edges="bottom-approaching right-exit"/>
    </vehicle>
    <vehicle id="L2-AV-125" type="L2-AV-" depart="437.50">
        <route edges="bottom-approaching closed-lane remerging-lane left-exit"/>
    </vehicle>
    <vehicle id="L2-AV-126" type="L2-AV-" depart="441.00">
        <route edges="bottom-approaching right-exit"/>
    </vehicle>
    <vehicle id="L2-AV-127" type="L2-AV-" depart="444.50">
        <route edges="top-approaching bottom-exit"/>
    </vehicle>
    <vehicle id="L2-AV-128" type="L2-AV-" depart="448.00">
        <route edges="right-approaching top-exit"/>
    </vehicle>
    <vehicle id="L2-AV-130" type="L2-AV-" depart="455.00">
        <route edges="right-approaching top-exit"/>
    </vehicle>
    <vehicle id="L2-AV-131" type="L2-AV-" depart="458.50">
        <route edges="bottom-approaching right-exit"/>
    </vehicle>
    <vehicle id="L2-AV-133" type="L2-AV-" depart="465.50">
        <route edges="top-approaching bottom-exit"/>
    </vehicle>
    <vehicle id="L2-AV-134" type="L2-AV-" depart="469.00">
        <route edges="top-approaching right-exit"/>
    </vehicle>
    <vehicle id="L2-AV-136" type="L2-AV-" depart="476.00">
        <route edges="right-approaching closed-lane remerging-lane left-exit"/>
    </vehicle>
    <vehicle id="L2-AV-137" type="L2-AV-Right-" depart="479.50">
        <route edges="left-long-approaching preparation left-short-approaching bottom-exit"/>
    </vehicle>
    <vehicle id="L2-AV-139" type="L2-AV-" depart="486.50">
        <route edges="top-approaching bottom-exit"/>
    </vehicle>
    <vehicle id="L2-AV-140" type="L2-AV-" depart="490.00">
        <route edges="right-approaching closed-lane remerging-lane left-exit"/>
    </vehicle>
    <vehicle id="L2-AV-141" type="L2-AV-" depart="493.50">
        <route edges="top-approaching right-exit"/>
    </vehicle>
    <vehicle id="L2-AV-142" type="L2-AV-" depart="497.00">
        <route edges="top-approaching right-exit"/>
    </vehicle>
    <vehicle id="L2-AV-143" type="L2-AV-" depart="500.50">
        <route edges="right-approaching top-exit"/>
    </vehicle>
    <vehicle id="L2-AV-144" type="L2-AV-" depart="504.00">
        <route edges="bottom-approaching right-exit"/>
    </vehicle>
    <vehicle id="L2-AV-145" type="L2-AV-" depart="507.50">
        <route edges="bottom-approaching closed-lane remerging-lane left-exit"/>
    </vehicle>
    <vehicle id="L2-AV-146" type="L2-AV-" depart="511.00">
        <route edges="bottom-approaching top-exit"/>
    </vehicle>
    <vehicle id="L2-AV-147" type="L2-AV-" depart="514.50">
        <route edges="bottom-approaching top-exit"/>
    </vehicle>
    <vehicle id="L2-AV-148" type="L2-AV-" depart="518.00">
        <route edges="top-approaching closed-lane remerging-lane left-exit"/>
    </vehicle>
    <vehicle id="L2-AV-149" type="L2-AV-" depart="521.50">
        <route edges="top-approaching bottom-exit"/>
    </vehicle>
    <vehicle id="L2-AV-152" type="L2-AV-" depart="532.00">
        <route edges="top-approaching bottom-exit"/>
    </vehicle>
    <vehicle id="L2-AV-153" type="L2-AV-" depart="535.50">
        <route edges="right-approaching closed-lane remerging-lane left-exit"/>
    </vehicle>
    <vehicle id="L2-AV-154" type="L2-AV-" depart="539.00">
        <route edges="bottom-approaching closed-lane remerging-lane left-exit"/>
    </vehicle>
    <vehicle id="L2-AV-155" type="L2-AV-" depart="542.50">
        <route edges="bottom-approaching top-exit"/>
    </vehicle>
    <vehicle id="L2-AV-156" type="L2-AV-" depart="546.00">
        <route edges="left-long-approaching preparation left-short-approaching right-exit"/>
    </vehicle>
    <vehicle id="L2-AV-159" type="L2-AV-" depart="556.50">
        <route edges="bottom-approaching top-exit"/>
    </vehicle>
    <vehicle id="L2-AV-160" type="L2-AV-" depart="560.00">
        <route edges="bottom-approaching closed-lane remerging-lane left-exit"/>
    </vehicle>
    <vehicle id="L2-AV-161" type="L2-AV-" depart="563.50">
        <route edges="top-approaching right-exit"/>
    </vehicle>
    <vehicle id="L2-AV-163" type="L2-AV-" depart="570.50">
        <route edges="right-approaching bottom-exit"/>
    </vehicle>
    <vehicle id="L2-AV-164" type="L2-AV-" depart="574.00">
        <route edges="right-approaching closed-lane remerging-lane left-exit"/>
    </vehicle>
    <vehicle id="L2-AV-165" type="L2-AV-" depart="577.50">
        <route edges="top-approaching right-exit"/>
    </vehicle>
    <vehicle id="L2-AV-166" type="L2-AV-" depart="581.00">
        <route edges="right-approaching top-exit"/>
    </vehicle>
    <vehicle id="L2-AV-167" type="L2-AV-Left-" depart="584.50">
        <route edges="left-long-approaching preparation"/>
    </vehicle>
    <vehicle id="L2-AV-168" type="L2-AV-" depart="588.00">
        <route edges="top-approaching bottom-exit"/>
    </vehicle>
    <vehicle id="L2-AV-170" type="L2-AV-" depart="595.00">
        <route edges="top-approaching closed-lane remerging-lane left-exit"/>
    </vehicle>
    <vehicle id="L2-AV-171" type="L2-AV-Right-" depart="598.50">
        <route edges="left-long-approaching preparation left-short-approaching bottom-exit"/>
    </vehicle>
    <vehicle id="L2-AV-172" type="L2-AV-Left-" depart="602.00">
        <route edges="left-long-approaching preparation"/>
    </vehicle>
    <vehicle id="L2-AV-173" type="L2-AV-Right-" depart="605.50">
        <route edges="left-long-approaching preparation left-short-approaching bottom-exit"/>
    </vehicle>
    <vehicle id="L2-AV-174" type="L2-AV-Right-" depart="609.00">
        <route edges="left-long-approaching preparation left-short-approaching bottom-exit"/>
    </vehicle>
    <vehicle id="L2-AV-175" type="L2-AV-" depart="612.50">
        <route edges="right-approaching top-exit"/>
    </vehicle>
    <vehicle id="L2-AV-176" type="L2-AV-" depart="616.00">
        <route edges="top-approaching bottom-exit"/>
    </vehicle>
    <vehicle id="L2-AV-177" type="L2-AV-Right-" depart="619.50">
        <route edges="left-long-approaching preparation left-short-approaching bottom-exit"/>
    </vehicle>
    <vehicle id="L2-AV-179" type="L2-AV-" depart="626.50">
        <route edges="right-approaching top-exit"/>
    </vehicle>
    <vehicle id="L2-AV-180" type="L2-AV-" depart="630.00">
        <route edges="right-approaching top-exit"/>
    </vehicle>
    <vehicle id="L2-AV-183" type="L2-AV-" depart="640.50">
        <route edges="right-approaching top-exit"/>
    </vehicle>
    <vehicle id="L2-AV-184" type="L2-AV-" depart="644.00">
        <route edges="right-approaching top-exit"/>
    </vehicle>
    <vehicle id="L2-AV-186" type="L2-AV-" depart="651.00">
        <route edges="bottom-approaching right-exit"/>
    </vehicle>
    <vehicle id="L2-AV-187" type="L2-AV-" depart="654.50">
        <route edges="right-approaching bottom-exit"/>
    </vehicle>
    <vehicle id="L2-AV-188" type="L2-AV-" depart="658.00">
        <route edges="right-approaching bottom-exit"/>
    </vehicle>
    <vehicle id="L2-AV-189" type="L2-AV-" depart="661.50">
        <route edges="right-approaching top-exit"/>
    </vehicle>
    <vehicle id="L2-AV-190" type="L2-AV-" depart="665.00">
        <route edges="bottom-approaching top-exit"/>
    </vehicle>
    <vehicle id="L2-AV-191" type="L2-AV-" depart="668.50">
        <route edges="right-approaching bottom-exit"/>
    </vehicle>
    <vehicle id="L2-AV-192" type="L2-AV-Right-" depart="672.00">
        <route edges="left-long-approaching preparation left-short-approaching bottom-exit"/>
    </vehicle>
    <vehicle id="L2-AV-193" type="L2-AV-" depart="675.50">
        <route edges="right-approaching top-exit"/>
    </vehicle>
    <vehicle id="L2-AV-195" type="L2-AV-" depart="682.50">
        <route edges="right-approaching top-exit"/>
    </vehicle>
    <vehicle id="L2-AV-196" type="L2-AV-" depart="686.00">
        <route edges="right-approaching closed-lane remerging-lane left-exit"/>
    </vehicle>
    <vehicle id="L2-AV-197" type="L2-AV-" depart="689.50">
        <route edges="bottom-approaching right-exit"/>
    </vehicle>
    <vehicle id="L2-AV-198" type="L2-AV-Left-" depart="693.00">
        <route edges="left-long-approaching preparation"/>
    </vehicle>
    <vehicle id="L2-AV-200" type="L2-AV-" depart="700.00">
        <route edges="top-approaching right-exit"/>
    </vehicle>
    <vehicle id="L2-AV-201" type="L2-AV-" depart="703.50">
        <route edges="top-approaching closed-lane remerging-lane left-exit"/>
    </vehicle>
    <vehicle id="L2-AV-202" type="L2-AV-" depart="707.00">
        <route edges="bottom-approaching top-exit"/>
    </vehicle>
    <vehicle id="L2-AV-203" type="L2-AV-" depart="710.50">
        <route edges="bottom-approaching top-exit"/>
    </vehicle>
    <vehicle id="L2-AV-204" type="L2-AV-Right-" depart="714.00">
        <route edges="left-long-approaching preparation left-short-approaching bottom-exit"/>
    </vehicle>
    <vehicle id="L2-AV-205" type="L2-AV-" depart="717.50">
        <route edges="left-long-approaching preparation left-short-approaching right-exit"/>
    </vehicle>
    <vehicle id="L2-AV-206" type="L2-AV-" depart="721.00">
        <route edges="left-long-approaching preparation left-short-approaching right-exit"/>
    </vehicle>
    <vehicle id="L2-AV-207" type="L2-AV-" depart="724.50">
        <route edges="bottom-approaching top-exit"/>
    </vehicle>
    <vehicle id="L2-AV-208" type="L2-AV-Left-" depart="728.00">
        <route edges="left-long-approaching preparation"/>
    </vehicle>
    <vehicle id="L2-AV-209" type="L2-AV-" depart="731.50">
        <route edges="bottom-approaching right-exit"/>
    </vehicle>
    <vehicle id="L2-AV-211" type="L2-AV-" depart="738.50">
        <route edges="bottom-approaching right-exit"/>
    </vehicle>
    <vehicle id="L2-AV-212" type="L2-AV-" depart="742.00">
        <route edges="top-approaching bottom-exit"/>
    </vehicle>
    <vehicle id="L2-AV-213" type="L2-AV-Right-" depart="745.50">
        <route edges="left-long-approaching preparation left-short-approaching bottom-exit"/>
    </vehicle>
    <vehicle id="L2-AV-215" type="L2-AV-" depart="752.50">
        <route edges="right-approaching closed-lane remerging-lane left-exit"/>
    </vehicle>
    <vehicle id="L2-AV-217" type="L2-AV-" depart="759.50">
        <route edges="right-approaching top-exit"/>
    </vehicle>
    <vehicle id="L2-AV-220" type="L2-AV-" depart="770.00">
        <route edges="right-approaching closed-lane remerging-lane left-exit"/>
    </vehicle>
    <vehicle id="L2-AV-221" type="L2-AV-" depart="773.50">
        <route edges="right-approaching top-exit"/>
    </vehicle>
    <vehicle id="L2-AV-222" type="L2-AV-Left-" depart="777.00">
        <route edges="left-long-approaching preparation"/>
    </vehicle>
    <vehicle id="L2-AV-223" type="L2-AV-" depart="780.50">
        <route edges="right-approaching bottom-exit"/>
    </vehicle>
    <vehicle id="L2-AV-225" type="L2-AV-" depart="787.50">
        <route edges="right-approaching bottom-exit"/>
    </vehicle>
    <vehicle id="L2-AV-226" type="L2-AV-" depart="791.00">
        <route edges="top-approaching closed-lane remerging-lane left-exit"/>
    </vehicle>
    <vehicle id="L2-AV-227" type="L2-AV-" depart="794.50">
        <route edges="right-approaching bottom-exit"/>
    </vehicle>
    <vehicle id="L2-AV-229" type="L2-AV-" depart="801.50">
        <route edges="bottom-approaching closed-lane remerging-lane left-exit"/>
    </vehicle>
    <vehicle id="L2-AV-232" type="L2-AV-" depart="812.00">
        <route edges="top-approaching bottom-exit"/>
    </vehicle>
    <vehicle id="L2-AV-234" type="L2-AV-" depart="819.00">
        <route edges="bottom-approaching top-exit"/>
    </vehicle>
    <vehicle id="L2-AV-235" type="L2-AV-Right-" depart="822.50">
        <route edges="left-long-approaching preparation left-short-approaching bottom-exit"/>
    </vehicle>
    <vehicle id="L2-AV-236" type="L2-AV-" depart="826.00">
        <route edges="bottom-approaching top-exit"/>
    </vehicle>
    <vehicle id="L2-AV-237" type="L2-AV-" depart="829.50">
        <route edges="bottom-approaching closed-lane remerging-lane left-exit"/>
    </vehicle>
    <vehicle id="L2-AV-238" type="L2-AV-" depart="833.00">
        <route edges="right-approaching closed-lane remerging-lane left-exit"/>
    </vehicle>
    <vehicle id="L2-AV-239" type="L2-AV-" depart="836.50">
        <route edges="right-approaching bottom-exit"/>
    </vehicle>
    <vehicle id="L2-AV-240" type="L2-AV-" depart="840.00">
        <route edges="left-long-approaching preparation left-short-approaching right-exit"/>
    </vehicle>
    <vehicle id="L2-AV-242" type="L2-AV-" depart="847.00">
        <route edges="left-long-approaching preparation left-short-approaching right-exit"/>
    </vehicle>
    <vehicle id="L2-AV-243" type="L2-AV-" depart="850.50">
        <route edges="top-approaching closed-lane remerging-lane left-exit"/>
    </vehicle>
    <vehicle id="L2-AV-244" type="L2-AV-" depart="854.00">
        <route edges="right-approaching top-exit"/>
    </vehicle>
    <vehicle id="L2-AV-246" type="L2-AV-" depart="861.00">
        <route edges="top-approaching closed-lane remerging-lane left-exit"/>
    </vehicle>
    <vehicle id="L2-AV-248" type="L2-AV-" depart="868.00">
        <route edges="top-approaching right-exit"/>
    </vehicle>
    <vehicle id="L2-AV-249" type="L2-AV-" depart="871.50">
        <route edges="top-approaching bottom-exit"/>
    </vehicle>
    <vehicle id="L2-AV-250" type="L2-AV-" depart="875.00">
        <route edges="left-long-approaching preparation left-short-approaching right-exit"/>
    </vehicle>
    <vehicle id="L2-AV-251" type="L2-AV-" depart="878.50">
        <route edges="left-long-approaching preparation left-short-approaching right-exit"/>
    </vehicle>
    <vehicle id="L2-AV-252" type="L2-AV-" depart="882.00">
        <route edges="right-approaching bottom-exit"/>
    </vehicle>
    <vehicle id="L2-AV-253" type="L2-AV-" depart="885.50">
        <route edges="bottom-approaching closed-lane remerging-lane left-exit"/>
    </vehicle>
    <vehicle id="L2-AV-254" type="L2-AV-" depart="889.00">
        <route edges="right-approaching bottom-exit"/>
    </vehicle>
    <vehicle id="L2-AV-255" type="L2-AV-Right-" depart="892.50">
        <route edges="left-long-approaching preparation left-short-approaching bottom-exit"/>
    </vehicle>
    <vehicle id="L2-AV-257" type="L2-AV-" depart="899.50">
        <route edges="left-long-approaching preparation left-short-approaching right-exit"/>
    </vehicle>
    <vehicle id="L2-AV-258" type="L2-AV-" depart="903.00">
        <route edges="top-approaching right-exit"/>
    </vehicle>
    <vehicle id="L2-AV-259" type="L2-AV-" depart="906.50">
        <route edges="right-approaching closed-lane remerging-lane left-exit"/>
    </vehicle>
    <vehicle id="L2-AV-260" type="L2-AV-" depart="910.00">
        <route edges="left-long-approaching preparation left-short-approaching right-exit"/>