<?xml version="1.0" ?><!-- generated on 03/26/21 01:36:24 by Eclipse SUMO duarouter Version 1.8.0
<configuration xmlns:xsi="http://www.w3.org/2001/XMLSchema-instance" xsi:noNamespaceSchemaLocation="http://sumo.dlr.de/xsd/duarouterConfiguration.xsd">

    <input>
        <net-file value="Roadworks/RoadworksIntersection.net.xml"/>
        <route-files value="trips.trips.xml"/>
    </input>

    <output>
        <output-file value="Roadworks/BaselinePenetration3/Route-Files/L2-AV-Route.rou.xml"/>
        <alternatives-output value="Roadworks/BaselinePenetration3/Route-Files/L2-AV-Route.rou.alt.xml"/>
    </output>

    <time>
        <begin value="0"/>
        <end value="3600"/>
    </time>

    <report>
        <no-warnings value="true"/>
        <ignore-errors value="true"/>
        <no-step-log value="true"/>
    </report>

</configuration>
--><routes xmlns:xsi="http://www.w3.org/2001/XMLSchema-instance" xsi:noNamespaceSchemaLocation="http://sumo.dlr.de/xsd/routes_file.xsd">
    <vehicle id="L2-AV-0" type="L2-AV-Right-" depart="0.00">
        <route edges="left-long-approaching preparation left-short-approaching bottom-exit"/>
    </vehicle>
    <vehicle id="L2-AV-1" type="L2-AV-" depart="6.20">
        <route edges="right-approaching bottom-exit"/>
    </vehicle>
    <vehicle id="L2-AV-2" type="L2-AV-" depart="12.40">
        <route edges="right-approaching closed-lane remerging-lane left-exit"/>
    </vehicle>
    <vehicle id="L2-AV-3" type="L2-AV-" depart="18.60">
        <route edges="bottom-approaching right-exit"/>
    </vehicle>
    <vehicle id="L2-AV-4" type="L2-AV-" depart="24.80">
        <route edges="bottom-approaching closed-lane remerging-lane left-exit"/>
    </vehicle>
    <vehicle id="L2-AV-6" type="L2-AV-Left-" depart="37.20">
        <route edges="left-long-approaching preparation"/>
    </vehicle>
    <vehicle id="L2-AV-8" type="L2-AV-" depart="49.60">
        <route edges="right-approaching top-exit"/>
    </vehicle>
    <vehicle id="L2-AV-9" type="L2-AV-" depart="55.80">
        <route edges="right-approaching closed-lane remerging-lane left-exit"/>
    </vehicle>
    <vehicle id="L2-AV-10" type="L2-AV-" depart="62.00">
        <route edges="top-approaching bottom-exit"/>
    </vehicle>
    <vehicle id="L2-AV-11" type="L2-AV-" depart="68.20">
        <route edges="top-approaching closed-lane remerging-lane left-exit"/>
    </vehicle>
    <vehicle id="L2-AV-13" type="L2-AV-Left-" depart="80.60">
        <route edges="left-long-approaching preparation"/>
    </vehicle>
    <vehicle id="L2-AV-14" type="L2-AV-" depart="86.80">
        <route edges="bottom-approaching right-exit"/>
    </vehicle>
    <vehicle id="L2-AV-15" type="L2-AV-" depart="93.00">
        <route edges="right-approaching closed-lane remerging-lane left-exit"/>
    </vehicle>
    <vehicle id="L2-AV-16" type="L2-AV-" depart="99.20">
        <route edges="right-approaching bottom-exit"/>
    </vehicle>
    <vehicle id="L2-AV-18" type="L2-AV-" depart="111.60">
        <route edges="right-approaching closed-lane remerging-lane left-exit"/>
    </vehicle>
    <vehicle id="L2-AV-19" type="L2-AV-" depart="117.80">
        <route edges="left-long-approaching preparation left-short-approaching right-exit"/>
    </vehicle>
    <vehicle id="L2-AV-21" type="L2-AV-" depart="130.20">
        <route edges="top-approaching right-exit"/>
    </vehicle>
    <vehicle id="L2-AV-22" type="L2-AV-" depart="136.40">
        <route edges="bottom-approaching right-exit"/>
    </vehicle>
    <vehicle id="L2-AV-23" type="L2-AV-" depart="142.60">
        <route edges="right-approaching top-exit"/>
    </vehicle>
    <vehicle id="L2-AV-24" type="L2-AV-" depart="148.80">
        <route edges="right-approaching closed-lane remerging-lane left-exit"/>
    </vehicle>
    <vehicle id="L2-AV-25" type="L2-AV-" depart="155.00">
        <route edges="top-approaching bottom-exit"/>
    </vehicle>
    <vehicle id="L2-AV-26" type="L2-AV-Left-" depart="161.20">
        <route edges="left-long-approaching preparation"/>
    </vehicle>
    <vehicle id="L2-AV-27" type="L2-AV-" depart="167.40">
        <route edges="bottom-approaching closed-lane remerging-lane left-exit"/>
    </vehicle>
    <vehicle id="L2-AV-28" type="L2-AV-" depart="173.60">
        <route edges="bottom-approaching right-exit"/>
    </vehicle>
    <vehicle id="L2-AV-29" type="L2-AV-" depart="179.80">
        <route edges="top-approaching right-exit"/>
    </vehicle>
    <vehicle id="L2-AV-30" type="L2-AV-" depart="186.00">
        <route edges="top-approaching closed-lane remerging-lane left-exit"/>
    </vehicle>
    <vehicle id="L2-AV-32" type="L2-AV-" depart="198.40">
        <route edges="right-approaching closed-lane remerging-lane left-exit"/>
    </vehicle>
    <vehicle id="L2-AV-34" type="L2-AV-" depart="210.80">
        <route edges="left-long-approaching preparation left-short-approaching right-exit"/>
    </vehicle>
    <vehicle id="L2-AV-35" type="L2-AV-" depart="217.00">
        <route edges="bottom-approaching right-exit"/>
    </vehicle>
    <vehicle id="L2-AV-36" type="L2-AV-" depart="223.20">
        <route edges="right-approaching top-exit"/>
    </vehicle>
    <vehicle id="L2-AV-37" type="L2-AV-" depart="229.40">
        <route edges="top-approaching closed-lane remerging-lane left-exit"/>
    </vehicle>
    <vehicle id="L2-AV-38" type="L2-AV-" depart="235.60">
        <route edges="left-long-approaching preparation left-short-approaching right-exit"/>
    </vehicle>
    <vehicle id="L2-AV-39" type="L2-AV-" depart="241.80">
        <route edges="bottom-approaching closed-lane remerging-lane left-exit"/>
    </vehicle>
    <vehicle id="L2-AV-41" type="L2-AV-" depart="254.20">
        <route edges="bottom-approaching top-exit"/>
    </vehicle>
    <vehicle id="L2-AV-43" type="L2-AV-Left-" depart="266.60">
        <route edges="left-long-approaching preparation"/>
    </vehicle>
    <vehicle id="L2-AV-44" type="L2-AV-" depart="272.80">
        <route edges="bottom-approaching closed-lane remerging-lane left-exit"/>
    </vehicle>
    <vehicle id="L2-AV-45" type="L2-AV-" depart="279.00">
        <route edges="right-approaching top-exit"/>
    </vehicle>
    <vehicle id="L2-AV-48" type="L2-AV-Left-" depart="297.60">
        <route edges="left-long-approaching preparation"/>
    </vehicle>
    <vehicle id="L2-AV-49" type="L2-AV-" depart="303.80">
        <route edges="top-approaching bottom-exit"/>
    </vehicle>
    <vehicle id="L2-AV-51" type="L2-AV-" depart="316.20">
        <route edges="bottom-approaching closed-lane remerging-lane left-exit"/>
    </vehicle>
    <vehicle id="L2-AV-52" type="L2-AV-" depart="322.40">
        <route edges="right-approaching closed-lane remerging-lane left-exit"/>
    </vehicle>
    <vehicle id="L2-AV-53" type="L2-AV-" depart="328.60">
        <route edges="bottom-approaching closed-lane remerging-lane left-exit"/>
    </vehicle>
    <vehicle id="L2-AV-54" type="L2-AV-" depart="334.80">
        <route edges="left-long-approaching preparation left-short-approaching right-exit"/>
    </vehicle>
    <vehicle id="L2-AV-55" type="L2-AV-" depart="341.00">
        <route edges="top-approaching right-exit"/>
    </vehicle>
    <vehicle id="L2-AV-57" type="L2-AV-" depart="353.40">
        <route edges="right-approaching bottom-exit"/>
    </vehicle>
    <vehicle id="L2-AV-61" type="L2-AV-" depart="378.20">
        <route edges="bottom-approaching right-exit"/>
    </vehicle>
    <vehicle id="L2-AV-64" type="L2-AV-Right-" depart="396.80">
        <route edges="left-long-approaching preparation left-short-approaching bottom-exit"/>
    </vehicle>
    <vehicle id="L2-AV-66" type="L2-AV-" depart="409.20">
        <route edges="bottom-approaching closed-lane remerging-lane left-exit"/>
    </vehicle>
    <vehicle id="L2-AV-67" type="L2-AV-" depart="415.40">
        <route edges="bottom-approaching top-exit"/>
    </vehicle>
    <vehicle id="L2-AV-68" type="L2-AV-" depart="421.60">
        <route edges="right-approaching bottom-exit"/>
    </vehicle>
    <vehicle id="L2-AV-70" type="L2-AV-Right-" depart="434.00">
        <route edges="left-long-approaching preparation left-short-approaching bottom-exit"/>
    </vehicle>
    <vehicle id="L2-AV-75" type="L2-AV-" depart="465.00">
        <route edges="top-approaching bottom-exit"/>
    </vehicle>
    <vehicle id="L2-AV-76" type="L2-AV-" depart="471.20">
        <route edges="bottom-approaching top-exit"/>
    </vehicle>
    <vehicle id="L2-AV-77" type="L2-AV-" depart="477.40">
        <route edges="right-approaching bottom-exit"/>
    </vehicle>
    <vehicle id="L2-AV-78" type="L2-AV-" depart="483.60">
        <route edges="right-approaching bottom-exit"/>
    </vehicle>
    <vehicle id="L2-AV-79" type="L2-AV-" depart="489.80">
        <route edges="right-approaching top-exit"/>
    </vehicle>
    <vehicle id="L2-AV-80" type="L2-AV-" depart="496.00">
        <route edges="top-approaching right-exit"/>
    </vehicle>
    <vehicle id="L2-AV-82" type="L2-AV-" depart="508.40">
        <route edges="bottom-approaching top-exit"/>
    </vehicle>
    <vehicle id="L2-AV-83" type="L2-AV-" depart="514.60">
        <route edges="right-approaching top-exit"/>
    </vehicle>
    <vehicle id="L2-AV-84" type="L2-AV-Right-" depart="520.80">
        <route edges="left-long-approaching preparation left-short-approaching bottom-exit"/>
    </vehicle>
    <vehicle id="L2-AV-87" type="L2-AV-" depart="539.40">
        <route edges="top-approaching right-exit"/>
    </vehicle>
    <vehicle id="L2-AV-88" type="L2-AV-" depart="545.60">
        <route edges="bottom-approaching right-exit"/>
    </vehicle>
    <vehicle id="L2-AV-89" type="L2-AV-Right-" depart="551.80">
        <route edges="left-long-approaching preparation left-short-approaching bottom-exit"/>
    </vehicle>
    <vehicle id="L2-AV-90" type="L2-AV-" depart="558.00">
        <route edges="bottom-approaching closed-lane remerging-lane left-exit"/>
    </vehicle>
    <vehicle id="L2-AV-91" type="L2-AV-" depart="564.20">
        <route edges="left-long-approaching preparation left-short-approaching right-exit"/>
    </vehicle>
    <vehicle id="L2-AV-92" type="L2-AV-" depart="570.40">
        <route edges="top-approaching closed-lane remerging-lane left-exit"/>
    </vehicle>
    <vehicle id="L2-AV-94" type="L2-AV-" depart="582.80">
        <route edges="top-approaching closed-lane remerging-lane left-exit"/>
    </vehicle>
    <vehicle id="L2-AV-97" type="L2-AV-" depart="601.40">
        <route edges="right-approaching top-exit"/>
    </vehicle>
    <vehicle id="L2-AV-98" type="L2-AV-" depart="607.60">
        <route edges="top-approaching closed-lane remerging-lane left-exit"/>
    </vehicle>
    <vehicle id="L2-AV-99" type="L2-AV-" depart="613.80">
        <route edges="right-approaching top-exit"/>
    </vehicle>
    <vehicle id="L2-AV-100" type="L2-AV-" depart="620.00">
        <route edges="bottom-approaching right-exit"/>
    </vehicle>
    <vehicle id="L2-AV-102" type="L2-AV-" depart="632.40">
        <route edges="right-approaching closed-lane remerging-lane left-exit"/>
    </vehicle>
    <vehicle id="L2-AV-103" type="L2-AV-" depart="638.60">
        <route edges="bottom-approaching top-exit"/>
    </vehicle>
    <vehicle id="L2-AV-104" type="L2-AV-Left-" depart="644.80">
        <route edges="left-long-approaching preparation"/>
    </vehicle>
    <vehicle id="L2-AV-105" type="L2-AV-" depart="651.00">
        <route edges="top-approaching closed-lane remerging-lane left-exit"/>
    </vehicle>
    <vehicle id="L2-AV-106" type="L2-AV-Left-" depart="657.20">
        <route edges="left-long-approaching preparation"/>
    </vehicle>
    <vehicle id="L2-AV-107" type="L2-AV-" depart="663.40">
        <route edges="right-approaching bottom-exit"/>
    </vehicle>
    <vehicle id="L2-AV-110" type="L2-AV-" depart="682.00">
        <route edges="bottom-approaching top-exit"/>
    </vehicle>
    <vehicle id="L2-AV-111" type="L2-AV-" depart="688.20">
        <route edges="top-approaching right-exit"/>
    </vehicle>
    <vehicle id="L2-AV-112" type="L2-AV-" depart="694.40">
        <route edges="left-long-approaching preparation left-short-approaching right-exit"/>
    </vehicle>
    <vehicle id="L2-AV-114" type="L2-AV-" depart="706.80">
        <route edges="top-approaching right-exit"/>
    </vehicle>
    <vehicle id="L2-AV-115" type="L2-AV-" depart="713.00">
        <route edges="right-approaching top-exit"/>
    </vehicle>
    <vehicle id="L2-AV-116" type="L2-AV-Left-" depart="719.20">
        <route edges="left-long-approaching preparation"/>
    </vehicle>
    <vehicle id="L2-AV-117" type="L2-AV-" depart="725.40">
        <route edges="top-approaching bottom-exit"/>
    </vehicle>
    <vehicle id="L2-AV-119" type="L2-AV-" depart="737.80">
        <route edges="bottom-approaching right-exit"/>
    </vehicle>
    <vehicle id="L2-AV-121" type="L2-AV-" depart="750.20">
        <route edges="bottom-approaching top-exit"/>
    </vehicle>
    <vehicle id="L2-AV-123" type="L2-AV-" depart="762.60">
        <route edges="right-approaching top-exit"/>
    </vehicle>
    <vehicle id="L2-AV-124" type="L2-AV-Left-" depart="768.80">
        <route edges="left-long-approaching preparation"/>
    </vehicle>
    <vehicle id="L2-AV-125" type="L2-AV-" depart="775.00">
        <route edges="left-long-approaching preparation left-short-approaching right-exit"/>
    </vehicle>
    <vehicle id="L2-AV-126" type="L2-AV-" depart="781.20">
        <route edges="right-approaching bottom-exit"/>
    </vehicle>
    <vehicle id="L2-AV-127" type="L2-AV-Right-" depart="787.40">
        <route edges="left-long-approaching preparation left-short-approaching bottom-exit"/>
    </vehicle>
    <vehicle id="L2-AV-128" type="L2-AV-" depart="793.60">
        <route edges="bottom-approaching top-exit"/>
    </vehicle>
    <vehicle id="L2-AV-129" type="L2-AV-" depart="799.80">
        <route edges="bottom-approaching closed-lane remerging-lane left-exit"/>
    </vehicle>
    <vehicle id="L2-AV-131" type="L2-AV-" depart="812.20">
        <route edges="left-long-approaching preparation left-short-approaching right-exit"/>
    </vehicle>
    <vehicle id="L2-AV-132" type="L2-AV-" depart="818.40">
        <route edges="right-approaching top-exit"/>
    </vehicle>
    <vehicle id="L2-AV-133" type="L2-AV-" depart="824.60">
        <route edges="bottom-approaching right-exit"/>
    </vehicle>
    <vehicle id="L2-AV-134" type="L2-AV-" depart="830.80">
        <route edges="closed-lane remerging-lane left-exit"/>
    </vehicle>
    <vehicle id="L2-AV-135" type="L2-AV-" depart="837.00">
        <route edges="top-approaching right-exit"/>
    </vehicle>
    <vehicle id="L2-AV-136" type="L2-AV-" depart="843.20">
        <route edges="right-approaching top-exit"/>
    </vehicle>
    <vehicle id="L2-AV-137" type="L2-AV-" depart="849.40">
        <route edges="top-approaching closed-lane remerging-lane left-exit"/>
    </vehicle>
    <vehicle id="L2-AV-140" type="L2-AV-" depart="868.00">
        <route edges="left-long-approaching preparation left-short-approaching right-exit"/>
    </vehicle>
    <vehicle id="L2-AV-141" type="L2-AV-Left-" depart="874.20">
        <route edges="left-long-approaching preparation"/>
    </vehicle>
    <vehicle id="L2-AV-142" type="L2-AV-" depart="880.40">
        <route edges="right-approaching top-exit"/>
    </vehicle>
    <vehicle id="L2-AV-143" type="L2-AV-" depart="886.60">
        <route edges="top-approaching closed-lane remerging-lane left-exit"/>
    </vehicle>
    <vehicle id="L2-AV-144" type="L2-AV-" depart="892.80">
        <route edges="right-approaching top-exit"/>
    </vehicle>
    <vehicle id="L2-AV-145" type="L2-AV-" depart="899.00">
        <route edges="top-approaching bottom-exit"/>
    </vehicle>
    <vehicle id="L2-AV-146" type="L2-AV-" depart="905.20">
        <route edges="bottom-approaching closed-lane remerging-lane left-exit"/>
    </vehicle>
    <vehicle id="L2-AV-148" type="L2-AV-" depart="917.60">
        <route edges="bottom-approaching right-exit"/>
    </vehicle>
    <vehicle id="L2-AV-150" type="L2-AV-" depart="930.00">
        <route edges="bottom-approaching right-exit"/>
    </vehicle>
    <vehicle id="L2-AV-151" type="L2-AV-" depart="936.20">
        <route edges="right-approaching bottom-exit"/>
    </vehicle>
    <vehicle id="L2-AV-153" type="L2-AV-" depart="948.60">
        <route edges="bottom-approaching top-exit"/>
    </vehicle>
    <vehicle id="L2-AV-156" type="L2-AV-" depart="967.20">
        <route edges="bottom-approaching closed-lane remerging-lane left-exit"/>
    </vehicle>
    <vehicle id="L2-AV-157" type="L2-AV-" depart="973.40">
        <route edges="right-approaching closed-lane remerging-lane left-exit"/>
    </vehicle>
    <vehicle id="L2-AV-158" type="L2-AV-" depart="979.60">
        <route edges="bottom-approaching closed-lane remerging-lane left-exit"/>
    </vehicle>
    <vehicle id="L2-AV-159" type="L2-AV-" depart="985.80">
        <route edges="right-approaching bottom-exit"/>
    </vehicle>
    <vehicle id="L2-AV-160" type="L2-AV-" depart="992.00">
        <route edges="right-approaching closed-lane remerging-lane left-exit"/>
    </vehicle>
    <vehicle id="L2-AV-161" type="L2-AV-" depart="998.20">
        <route edges="bottom-approaching closed-lane remerging-lane left-exit"/>
    </vehicle>
    <vehicle id="L2-AV-163" type="L2-AV-" depart="1010.60">
        <route edges="bottom-approaching top-exit"/>
    </vehicle>
    <vehicle id="L2-AV-165" type="L2-AV-" depart="1023.00">
        <route edges="bottom-approaching closed-lane remerging-lane left-exit"/>
    </vehicle>
    <vehicle id="L2-AV-166" type="L2-AV-" depart="1029.20">
        <route edges="bottom-approaching top-exit"/>
    </vehicle>
    <vehicle id="L2-AV-167" type="L2-AV-Right-" depart="1035.40">
        <route edges="left-long-approaching preparation left-short-approaching bottom-exit"/>
    </vehicle>
    <vehicle id="L2-AV-168" type="L2-AV-Left-" depart="1041.60">
        <route edges="left-long-approaching preparation"/>
    </vehicle>
    <vehicle id="L2-AV-169" type="L2-AV-" depart="1047.80">
        <route edges="top-approaching closed-lane remerging-lane left-exit"/>
    </vehicle>
    <vehicle id="L2-AV-170" type="L2-AV-" depart="1054.00">
        <route edges="bottom-approaching top-exit"/>
    </vehicle>
    <vehicle id="L2-AV-173" type="L2-AV-" depart="1072.60">
        <route edges="right-approaching closed-lane remerging-lane left-exit"/>
    </vehicle>
    <vehicle id="L2-AV-174" type="L2-AV-" depart="1078.80">
        <route edges="bottom-approaching top-exit"/>
    </vehicle>
    <vehicle id="L2-AV-175" type="L2-AV-" depart="1085.00">
        <route edges="right-approaching top-exit"/>
    </vehicle>
    <vehicle id="L2-AV-176" type="L2-AV-" depart="1091.20">
        <route edges="bottom-approaching top-exit"/>
    </vehicle>
    <vehicle id="L2-AV-177" type="L2-AV-" depart="1097.40">
        <route edges="bottom-approaching top-exit"/>
    </vehicle>
    <vehicle id="L2-AV-179" type="L2-AV-" depart="1109.80">
        <route edges="right-approaching top-exit"/>
    </vehicle>
    <vehicle id="L2-AV-180" type="L2-AV-Right-" depart="1116.00">
        <route edges="left-long-approaching preparation left-short-approaching bottom-exit"/>
    </vehicle>
    <vehicle id="L2-AV-181" type="L2-AV-" depart="1122.20">
        <route edges="right-approaching bottom-exit"/>
    </vehicle>
    <vehicle id="L2-AV-185" type="L2-AV-" depart="1147.00">
        <route edges="top-approaching closed-lane remerging-lane left-exit"/>
    </vehicle>
    <vehicle id="L2-AV-186" type="L2-AV-Right-" depart="1153.20">
        <route edges="left-long-approaching preparation left-short-approaching bottom-exit"/>
    </vehicle>
    <vehicle id="L2-AV-187" type="L2-AV-Right-" depart="1159.40">
        <route edges="left-long-approaching preparation left-short-approaching bottom-exit"/>
    </vehicle>
    <vehicle id="L2-AV-188" type="L2-AV-Right-" depart="1165.60">
        <route edges="left-long-approaching preparation left-short-approaching bottom-exit"/>
    </vehicle>
    <vehicle id="L2-AV-190" type="L2-AV-" depart="1178.00">
        <route edges="bottom-approaching closed-lane remerging-lane left-exit"/>
    </vehicle>
    <vehicle id="L2-AV-191" type="L2-AV-" depart="1184.20">
        <route edges="top-approaching bottom-exit"/>
    </vehicle>
    <vehicle id="L2-AV-192" type="L2-AV-" depart="1190.40">
        <route edges="top-approaching closed-lane remerging-lane left-exit"/>
    </vehicle>
    <vehicle id="L2-AV-193" type="L2-AV-Left-" depart="1196.60">
        <route edges="left-long-approaching preparation"/>
    </vehicle>
    <vehicle id="L2-AV-194" type="L2-AV-" depart="1202.80">
        <route edges="left-long-approaching preparation left-short-approaching right-exit"/>
    </vehicle>
    <vehicle id="L2-AV-195" type="L2-AV-" depart="1209.00">
        <route edges="right-approaching top-exit"/>
    </vehicle>
    <vehicle id="L2-AV-196" type="L2-AV-Left-" depart="1215.20">
        <route edges="left-long-approaching preparation"/>
    </vehicle>
    <vehicle id="L2-AV-200" type="L2-AV-" depart="1240.00">
        <route edges="bottom-approaching right-exit"/>
    </vehicle>
    <vehicle id="L2-AV-201" type="L2-AV-Right-" depart="1246.20">
        <route edges="left-long-approaching preparation left-short-approaching bottom-exit"/>
    </vehicle>
    <vehicle id="L2-AV-202" type="L2-AV-" depart="1252.40">
        <route edges="bottom-approaching top-exit"/>
    </vehicle>
    <vehicle id="L2-AV-203" type="L2-AV-" depart="1258.60">
        <route edges="top-approaching right-exit"/>
    </vehicle>
    <vehicle id="L2-AV-204" type="L2-AV-Right-" depart="1264.80">
        <route edges="left-long-approaching preparation left-short-approaching bottom-exit"/>
    </vehicle>
    <vehicle id="L2-AV-206" type="L2-AV-" depart="1277.20">
        <route edges="bottom-approaching closed-lane remerging-lane left-exit"/>
    </vehicle>
    <vehicle id="L2-AV-207" type="L2-AV-Left-" depart="1283.40">
        <route edges="left-long-approaching preparation"/>
    </vehicle>
    <vehicle id="L2-AV-208" type="L2-AV-" depart="1289.60">
        <route edges="top-approaching right-exit"/>
    </vehicle>
    <vehicle id="L2-AV-209" type="L2-AV-" depart="1295.80">
        <route edges="bottom-approaching top-exit"/>
    </vehicle>
    <vehicle id="L2-AV-211" type="L2-AV-" depart="1308.20">
        <route edges="bottom-approaching closed-lane remerging-lane left-exit"/>
    </vehicle>
    <vehicle id="L2-AV-212" type="L2-AV-Left-" depart="1314.40">
        <route edges="left-long-approaching preparation"/>
    </vehicle>
    <vehicle id="L2-AV-213" type="L2-AV-" depart="1320.60">
        <route edges="bottom-approaching right-exit"/>
    </vehicle>
    <vehicle id="L2-AV-214" type="L2-AV-" depart="1326.80">
        <route edges="bottom-approaching closed-lane remerging-lane left-exit"/>
    </vehicle>
    <vehicle id="L2-AV-215" type="L2-AV-" depart="1333.00">
        <route edges="bottom-approaching closed-lane remerging-lane left-exit"/>
    </vehicle>
    <vehicle id="L2-AV-217" type="L2-AV-Right-" depart="1345.40">
        <route edges="left-long-approaching preparation left-short-approaching bottom-exit"/>
    </vehicle>
    <vehicle id="L2-AV-220" type="L2-AV-" depart="1364.00">
        <route edges="right-approaching top-exit"/>
    </vehicle>
    <vehicle id="L2-AV-222" type="L2-AV-" depart="1376.40">
        <route edges="top-approaching bottom-exit"/>
    </vehicle>
    <vehicle id="L2-AV-224" type="L2-AV-" depart="1388.80">
        <route edges="bottom-approaching top-exit"/>
    </vehicle>
    <vehicle id="L2-AV-225" type="L2-AV-" depart="1395.00">
        <route edges="top-approaching right-exit"/>
    </vehicle>
    <vehicle id="L2-AV-226" type="L2-AV-" depart="1401.20">
        <route edges="right-approaching top-exit"/>
    </vehicle>
    <vehicle id="L2-AV-227" type="L2-AV-" depart="1407.40">
        <route edges="bottom-approaching right-exit"/>
    </vehicle>
    <vehicle id="L2-AV-228" type="L2-AV-" depart="1413.60">
        <route edges="right-approaching top-exit"/>
    </vehicle>
    <vehicle id="L2-AV-230" type="L2-AV-" depart="1426.00">
        <route edges="right-approaching top-exit"/>
    </vehicle>
    <vehicle id="L2-AV-233" type="L2-AV-" depart="1444.60">
        <route edges="bottom-approaching closed-lane remerging-lane left-exit"/>
    </vehicle>
    <vehicle id="L2-AV-234" type="L2-AV-" depart="1450.80">
        <route edges="bottom-approaching top-exit"/>
    </vehicle>
    <vehicle id="L2-AV-237" type="L2-AV-Right-" depart="1469.40">
        <route edges="left-long-approaching preparation left-short-approaching bottom-exit"/>
    </vehicle>
    <vehicle id="L2-AV-238" type="L2-AV-" depart="1475.60">
        <route edges="top-approaching right-exit"/>
    </vehicle>
    <vehicle id="L2-AV-239" type="L2-AV-" depart="1481.80">
        <route edges="left-long-approaching preparation left-short-approaching right-exit"/>
    </vehicle>
    <vehicle id="L2-AV-240" type="L2-AV-" depart="1488.00">
        <route edges="right-approaching bottom-exit"/>
    </vehicle>
    <vehicle id="L2-AV-241" type="L2-AV-" depart="1494.20">
        <route edges="right-approaching closed-lane remerging-lane left-exit"/>
    </vehicle>
    <vehicle id="L2-AV-242" type="L2-AV-" depart="1500.40">
        <route edges="bottom-approaching closed-lane remerging-lane left-exit"/>
    </vehicle>
    <vehicle id="L2-AV-243" type="L2-AV-" depart="1506.60">
        <route edges="right-approaching bottom-exit"/>
    </vehicle>
    <vehicle id="L2-AV-244" type="L2-AV-" depart="1512.80">
        <route edges="right-approaching top-exit"/>
    </vehicle>
    <vehicle id="L2-AV-246" type="L2-AV-" depart="1525.20">
        <route edges="left-long-approaching preparation left-short-approaching right-exit"/>
    </vehicle>
    <vehicle id="L2-AV-247" type="L2-AV-" depart="1531.40">
        <route edges="top-approaching right-exit"/>
    </vehicle>
    <vehicle id="L2-AV-248" type="L2-AV-" depart="1537.60">
        <route edges="right-approaching bottom-exit"/>
    </vehicle>
    <vehicle id="L2-AV-249" type="L2-AV-" depart="1543.80">
        <route edges="bottom-approaching closed-lane remerging-lane left-exit"/>
    </vehicle>
    <vehicle id="L2-AV-250" type="L2-AV-" depart="1550.00">
        <route edges="right-approaching closed-lane remerging-lane left-exit"/>
    </vehicle>
    <vehicle id="L2-AV-251" type="L2-AV-" depart="1556.20">
        <route edges="right-approaching bottom-exit"/>
    </vehicle>
    <vehicle id="L2-AV-252" type="L2-AV-" depart="1562.40">
        <route edges="bottom-approaching closed-lane remerging-lane left-exit"/>
    </vehicle>
    <vehicle id="L2-AV-254" type="L2-AV-" depart="1574.80">
        <route edges="right-approaching closed-lane remerging-lane left-exit"/>
    </vehicle>
    <vehicle id="L2-AV-255" type="L2-AV-" depart="1581.00">
        <route edges="right-approaching closed-lane remerging-lane left-exit"/>
    </vehicle>
    <vehicle id="L2-AV-256" type="L2-AV-Right-" depart="1587.20">
        <route edges="left-long-approaching preparation left-short-approaching bottom-exit"/>
    </vehicle>
    <vehicle id="L2-AV-257" type="L2-AV-" depart="1593.40">
        <route edges="top-approaching bottom-exit"/>
    </vehicle>
    <vehicle id="L2-AV-259" type="L2-AV-" depart="1605.80">
        <route edges="bottom-approaching closed-lane remerging-lane left-exit"/>
    </vehicle>
    <vehicle id="L2-AV-262" type="L2-AV-" depart="1624.40">
        <route edges="bottom-approaching top-exit"/>
    </vehicle>
    <vehicle id="L2-AV-263" type="L2-AV-" depart="1630.60">
        <route edges="bottom-approaching right-exit"/>
    </vehicle>
    <vehicle id="L2-AV-264" type="L2-AV-" depart="1636.80">
        <route edges="bottom-approaching right-exit"/>
    </vehicle>
    <vehicle id="L2-AV-265" type="L2-AV-" depart="1643.00">
        <route edges="top-approaching bottom-exit"/>
    </vehicle>
    <vehicle id="L2-AV-266" type="L2-AV-" depart="1649.20">
        <route edges="top-approaching right-exit"/>
    </vehicle>
    <vehicle id="L2-AV-267" type="L2-AV-" depart="1655.40">
        <route edges="top-approaching right-exit"/>
    </vehicle>
    <vehicle id="L2-AV-268" type="L2-AV-" depart="1661.60">
        <route edges="bottom-approaching top-exit"/>
    </vehicle>
    <vehicle id="L2-AV-269" type="L2-AV-Right-" depart="1667.80">
        <route edges="left-long-approaching preparation left-short-approaching bottom-exit"/>
    </vehicle>
    <vehicle id="L2-AV-270" type="L2-AV-" depart="1674.00">
        <route edges="bottom-approaching closed-lane remerging-lane left-exit"/>
    </vehicle>
    <vehicle id="L2-AV-272" type="L2-AV-" depart="1686.40">
        <route edges="bottom-approaching closed-lane remerging-lane left-exit"/>
    </vehicle>
    <vehicle id="L2-AV-273" type="L2-AV-Left-" depart="1692.60">
        <route edges="left-long-approaching preparation"/>
    </vehicle>
    <vehicle id="L2-AV-274" type="L2-AV-" depart="1698.80">
        <route edges="bottom-approaching right-exit"/>
    </vehicle>
    <vehicle id="L2-AV-275" type="L2-AV-" depart="1705.00">
        <route edges="top-approaching bottom-exit"/>
    </vehicle>
    <vehicle id="L2-AV-276" type="L2-AV-" depart="1711.20">
        <route edges="top-approaching right-exit"/>
    </vehicle>
    <vehicle id="L2-AV-277" type="L2-AV-" depart="1717.40">
        <route edges="top-approaching closed-lane remerging-lane left-exit"/>
    </vehicle>
    <vehicle id="L2-AV-279" type="L2-AV-" depart="1729.80">
        <route edges="top-approaching right-exit"/>
    </vehicle>
    <vehicle id="L2-AV-281" type="L2-AV-Right-" depart="1742.20">