<?xml version="1.0" ?><!-- generated on 04/17/21 13:57:19 by Eclipse SUMO duarouter Version 1.8.0
<configuration xmlns:xsi="http://www.w3.org/2001/XMLSchema-instance" xsi:noNamespaceSchemaLocation="http://sumo.dlr.de/xsd/duarouterConfiguration.xsd">

    <input>
        <net-file value="Roadworks/RoadworksIntersection.net.xml"/>
        <route-files value="trips.trips.xml"/>
    </input>

    <output>
        <output-file value="Roadworks/BaselinePenetration3/Route-Files/L2-CV-Route.rou.xml"/>
        <alternatives-output value="Roadworks/BaselinePenetration3/Route-Files/L2-CV-Route.rou.alt.xml"/>
    </output>

    <time>
        <begin value="0"/>
        <end value="3600"/>
    </time>

    <report>
        <no-warnings value="true"/>
        <ignore-errors value="true"/>
        <no-step-log value="true"/>
    </report>

</configuration>
--><routes xmlns:xsi="http://www.w3.org/2001/XMLSchema-instance" xsi:noNamespaceSchemaLocation="http://sumo.dlr.de/xsd/routes_file.xsd">
    <vehicle id="L2-CV-0" type="L2-CV-" depart="0.00">
        <route edges="bottom-approaching top-exit"/>
    </vehicle>
    <vehicle id="L2-CV-1" type="L2-CV-" depart="4.20">
        <route edges="top-approaching closed-lane remerging-lane left-exit"/>
    </vehicle>
    <vehicle id="L2-CV-3" type="L2-CV-" depart="12.60">
        <route edges="right-approaching top-exit"/>
    </vehicle>
    <vehicle id="L2-CV-5" type="L2-CV-" depart="21.00">
        <route edges="top-approaching closed-lane remerging-lane left-exit"/>
    </vehicle>
    <vehicle id="L2-CV-6" type="L2-CV-" depart="25.20">
        <route edges="top-approaching bottom-exit"/>
    </vehicle>
    <vehicle id="L2-CV-7" type="L2-CV-" depart="29.40">
        <route edges="left-long-approaching preparation left-short-approaching right-exit"/>
    </vehicle>
    <vehicle id="L2-CV-8" type="L2-CV-" depart="33.60">
        <route edges="bottom-approaching top-exit"/>
    </vehicle>
    <vehicle id="L2-CV-9" type="L2-CV-" depart="37.80">
        <route edges="top-approaching bottom-exit"/>
    </vehicle>
    <vehicle id="L2-CV-10" type="L2-CV-" depart="42.00">
        <route edges="bottom-approaching right-exit"/>
    </vehicle>
    <vehicle id="L2-CV-11" type="L2-CV-" depart="46.20">
        <route edges="top-approaching closed-lane remerging-lane left-exit"/>
    </vehicle>
    <vehicle id="L2-CV-12" type="L2-CV-" depart="50.40">
        <route edges="bottom-approaching closed-lane remerging-lane left-exit"/>
    </vehicle>
    <vehicle id="L2-CV-16" type="L2-CV-" depart="67.20">
        <route edges="bottom-approaching closed-lane remerging-lane left-exit"/>
    </vehicle>
    <vehicle id="L2-CV-17" type="L2-CV-Right-" depart="71.40">
        <route edges="left-long-approaching preparation left-short-approaching bottom-exit"/>
    </vehicle>
    <vehicle id="L2-CV-18" type="L2-CV-" depart="75.60">
        <route edges="top-approaching right-exit"/>
    </vehicle>
    <vehicle id="L2-CV-19" type="L2-CV-" depart="79.80">
        <route edges="right-approaching bottom-exit"/>
    </vehicle>
    <vehicle id="L2-CV-21" type="L2-CV-" depart="88.20">
        <route edges="bottom-approaching closed-lane remerging-lane left-exit"/>
    </vehicle>
    <vehicle id="L2-CV-23" type="L2-CV-" depart="96.60">
        <route edges="top-approaching closed-lane remerging-lane left-exit"/>
    </vehicle>
    <vehicle id="L2-CV-24" type="L2-CV-" depart="100.80">
        <route edges="top-approaching right-exit"/>
    </vehicle>
    <vehicle id="L2-CV-25" type="L2-CV-" depart="105.00">
        <route edges="left-long-approaching preparation left-short-approaching right-exit"/>
    </vehicle>
    <vehicle id="L2-CV-29" type="L2-CV-" depart="121.80">
        <route edges="top-approaching closed-lane remerging-lane left-exit"/>
    </vehicle>
    <vehicle id="L2-CV-30" type="L2-CV-" depart="126.00">
        <route edges="bottom-approaching right-exit"/>
    </vehicle>
    <vehicle id="L2-CV-33" type="L2-CV-" depart="138.60">
        <route edges="right-approaching top-exit"/>
    </vehicle>
    <vehicle id="L2-CV-34" type="L2-CV-" depart="142.80">
        <route edges="right-approaching closed-lane remerging-lane left-exit"/>
    </vehicle>
    <vehicle id="L2-CV-35" type="L2-CV-Right-" depart="147.00">
        <route edges="left-long-approaching preparation left-short-approaching bottom-exit"/>
    </vehicle>
    <vehicle id="L2-CV-36" type="L2-CV-" depart="151.20">
        <route edges="bottom-approaching right-exit"/>
    </vehicle>
    <vehicle id="L2-CV-37" type="L2-CV-" depart="155.40">
        <route edges="top-approaching right-exit"/>
    </vehicle>
    <vehicle id="L2-CV-38" type="L2-CV-Right-" depart="159.60">
        <route edges="left-long-approaching preparation left-short-approaching bottom-exit"/>
    </vehicle>
    <vehicle id="L2-CV-39" type="L2-CV-Left-" depart="163.80">
        <route edges="left-long-approaching preparation"/>
    </vehicle>
    <vehicle id="L2-CV-40" type="L2-CV-" depart="168.00">
        <route edges="top-approaching right-exit"/>
    </vehicle>
    <vehicle id="L2-CV-41" type="L2-CV-" depart="172.20">
        <route edges="top-approaching bottom-exit"/>
    </vehicle>
    <vehicle id="L2-CV-42" type="L2-CV-" depart="176.40">
        <route edges="right-approaching top-exit"/>
    </vehicle>
    <vehicle id="L2-CV-43" type="L2-CV-" depart="180.60">
        <route edges="right-approaching closed-lane remerging-lane left-exit"/>
    </vehicle>
    <vehicle id="L2-CV-44" type="L2-CV-" depart="184.80">
        <route edges="left-long-approaching preparation left-short-approaching right-exit"/>
    </vehicle>
    <vehicle id="L2-CV-45" type="L2-CV-" depart="189.00">
        <route edges="top-approaching bottom-exit"/>
    </vehicle>
    <vehicle id="L2-CV-47" type="L2-CV-" depart="197.40">
        <route edges="top-approaching right-exit"/>
    </vehicle>
    <vehicle id="L2-CV-48" type="L2-CV-" depart="201.60">
        <route edges="top-approaching right-exit"/>
    </vehicle>
    <vehicle id="L2-CV-49" type="L2-CV-" depart="205.80">
        <route edges="right-approaching closed-lane remerging-lane left-exit"/>
    </vehicle>
    <vehicle id="L2-CV-50" type="L2-CV-" depart="210.00">
        <route edges="bottom-approaching top-exit"/>
    </vehicle>
    <vehicle id="L2-CV-51" type="L2-CV-" depart="214.20">
        <route edges="right-approaching bottom-exit"/>
    </vehicle>
    <vehicle id="L2-CV-52" type="L2-CV-" depart="218.40">
        <route edges="right-approaching closed-lane remerging-lane left-exit"/>
    </vehicle>
    <vehicle id="L2-CV-55" type="L2-CV-" depart="231.00">
        <route edges="right-approaching closed-lane remerging-lane left-exit"/>
    </vehicle>
    <vehicle id="L2-CV-57" type="L2-CV-" depart="239.40">
        <route edges="bottom-approaching right-exit"/>
    </vehicle>
    <vehicle id="L2-CV-60" type="L2-CV-Left-" depart="252.00">
        <route edges="left-long-approaching preparation"/>
    </vehicle>
    <vehicle id="L2-CV-61" type="L2-CV-" depart="256.20">
        <route edges="right-approaching bottom-exit"/>
    </vehicle>
    <vehicle id="L2-CV-63" type="L2-CV-" depart="264.60">
        <route edges="top-approaching closed-lane remerging-lane left-exit"/>
    </vehicle>
    <vehicle id="L2-CV-64" type="L2-CV-" depart="268.80">
        <route edges="bottom-approaching right-exit"/>
    </vehicle>
    <vehicle id="L2-CV-65" type="L2-CV-Right-" depart="273.00">
        <route edges="left-long-approaching preparation left-short-approaching bottom-exit"/>
    </vehicle>
    <vehicle id="L2-CV-66" type="L2-CV-" depart="277.20">
        <route edges="bottom-approaching right-exit"/>
    </vehicle>
    <vehicle id="L2-CV-67" type="L2-CV-" depart="281.40">
        <route edges="bottom-approaching closed-lane remerging-lane left-exit"/>
    </vehicle>
    <vehicle id="L2-CV-68" type="L2-CV-" depart="285.60">
        <route edges="right-approaching closed-lane remerging-lane left-exit"/>
    </vehicle>
    <vehicle id="L2-CV-70" type="L2-CV-" depart="294.00">
        <route edges="bottom-approaching closed-lane remerging-lane left-exit"/>
    </vehicle>
    <vehicle id="L2-CV-71" type="L2-CV-Right-" depart="298.20">
        <route edges="left-long-approaching preparation left-short-approaching bottom-exit"/>
    </vehicle>
    <vehicle id="L2-CV-72" type="L2-CV-" depart="302.40">
        <route edges="bottom-approaching top-exit"/>
    </vehicle>
    <vehicle id="L2-CV-73" type="L2-CV-" depart="306.60">
        <route edges="right-approaching bottom-exit"/>
    </vehicle>
    <vehicle id="L2-CV-74" type="L2-CV-" depart="310.80">
        <route edges="right-approaching top-exit"/>
    </vehicle>
    <vehicle id="L2-CV-76" type="L2-CV-" depart="319.20">
        <route edges="bottom-approaching right-exit"/>
    </vehicle>
    <vehicle id="L2-CV-77" type="L2-CV-" depart="323.40">
        <route edges="bottom-approaching right-exit"/>
    </vehicle>
    <vehicle id="L2-CV-79" type="L2-CV-" depart="331.80">
        <route edges="bottom-approaching top-exit"/>
    </vehicle>
    <vehicle id="L2-CV-80" type="L2-CV-" depart="336.00">
        <route edges="top-approaching right-exit"/>
    </vehicle>
    <vehicle id="L2-CV-81" type="L2-CV-" depart="340.20">
        <route edges="bottom-approaching right-exit"/>
    </vehicle>
    <vehicle id="L2-CV-82" type="L2-CV-" depart="344.40">
        <route edges="left-long-approaching preparation left-short-approaching right-exit"/>
    </vehicle>
    <vehicle id="L2-CV-83" type="L2-CV-" depart="348.60">
        <route edges="left-long-approaching preparation left-short-approaching right-exit"/>
    </vehicle>
    <vehicle id="L2-CV-84" type="L2-CV-" depart="352.80">
        <route edges="bottom-approaching closed-lane remerging-lane left-exit"/>
    </vehicle>
    <vehicle id="L2-CV-86" type="L2-CV-Left-" depart="361.20">
        <route edges="left-long-approaching preparation"/>
    </vehicle>
    <vehicle id="L2-CV-87" type="L2-CV-Left-" depart="365.40">
        <route edges="left-long-approaching preparation"/>
    </vehicle>
    <vehicle id="L2-CV-88" type="L2-CV-" depart="369.60">
        <route edges="right-approaching closed-lane remerging-lane left-exit"/>
    </vehicle>
    <vehicle id="L2-CV-89" type="L2-CV-Right-" depart="373.80">
        <route edges="left-long-approaching preparation left-short-approaching bottom-exit"/>
    </vehicle>
    <vehicle id="L2-CV-90" type="L2-CV-" depart="378.00">
        <route edges="top-approaching bottom-exit"/>
    </vehicle>
    <vehicle id="L2-CV-92" type="L2-CV-" depart="386.40">
        <route edges="right-approaching bottom-exit"/>
    </vehicle>
    <vehicle id="L2-CV-96" type="L2-CV-" depart="403.20">
        <route edges="bottom-approaching right-exit"/>
    </vehicle>
    <vehicle id="L2-CV-97" type="L2-CV-Right-" depart="407.40">
        <route edges="left-long-approaching preparation left-short-approaching bottom-exit"/>
    </vehicle>
    <vehicle id="L2-CV-98" type="L2-CV-" depart="411.60">
        <route edges="bottom-approaching right-exit"/>
    </vehicle>
    <vehicle id="L2-CV-99" type="L2-CV-Right-" depart="415.80">
        <route edges="left-long-approaching preparation left-short-approaching bottom-exit"/>
    </vehicle>
    <vehicle id="L2-CV-100" type="L2-CV-Left-" depart="420.00">
        <route edges="left-long-approaching preparation"/>
    </vehicle>
    <vehicle id="L2-CV-101" type="L2-CV-" depart="424.20">
        <route edges="top-approaching bottom-exit"/>
    </vehicle>
    <vehicle id="L2-CV-102" type="L2-CV-" depart="428.40">
        <route edges="bottom-approaching closed-lane remerging-lane left-exit"/>
    </vehicle>
    <vehicle id="L2-CV-104" type="L2-CV-Right-" depart="436.80">
        <route edges="left-long-approaching preparation left-short-approaching bottom-exit"/>
    </vehicle>
    <vehicle id="L2-CV-105" type="L2-CV-" depart="441.00">
        <route edges="right-approaching top-exit"/>
    </vehicle>
    <vehicle id="L2-CV-106" type="L2-CV-" depart="445.20">
        <route edges="top-approaching closed-lane remerging-lane left-exit"/>
    </vehicle>
    <vehicle id="L2-CV-107" type="L2-CV-" depart="449.40">
        <route edges="top-approaching right-exit"/>
    </vehicle>
    <vehicle id="L2-CV-108" type="L2-CV-Left-" depart="453.60">
        <route edges="left-long-approaching preparation"/>
    </vehicle>
    <vehicle id="L2-CV-109" type="L2-CV-" depart="457.80">
        <route edges="bottom-approaching right-exit"/>
    </vehicle>
    <vehicle id="L2-CV-111" type="L2-CV-" depart="466.20">
        <route edges="top-approaching bottom-exit"/>
    </vehicle>
    <vehicle id="L2-CV-112" type="L2-CV-" depart="470.40">
        <route edges="top-approaching right-exit"/>
    </vehicle>
    <vehicle id="L2-CV-113" type="L2-CV-" depart="474.60">
        <route edges="top-approaching closed-lane remerging-lane left-exit"/>
    </vehicle>
    <vehicle id="L2-CV-115" type="L2-CV-" depart="483.00">
        <route edges="top-approaching right-exit"/>
    </vehicle>
    <vehicle id="L2-CV-117" type="L2-CV-" depart="491.40">
        <route edges="bottom-approaching right-exit"/>
    </vehicle>
    <vehicle id="L2-CV-119" type="L2-CV-" depart="499.80">
        <route edges="bottom-approaching top-exit"/>
    </vehicle>
    <vehicle id="L2-CV-121" type="L2-CV-" depart="508.20">
        <route edges="left-long-approaching preparation left-short-approaching right-exit"/>
    </vehicle>
    <vehicle id="L2-CV-122" type="L2-CV-" depart="512.40">
        <route edges="top-approaching closed-lane remerging-lane left-exit"/>
    </vehicle>
    <vehicle id="L2-CV-123" type="L2-CV-" depart="516.60">
        <route edges="right-approaching bottom-exit"/>
    </vehicle>
    <vehicle id="L2-CV-124" type="L2-CV-" depart="520.80">
        <route edges="bottom-approaching closed-lane remerging-lane left-exit"/>
    </vehicle>
    <vehicle id="L2-CV-125" type="L2-CV-" depart="525.00">
        <route edges="top-approaching right-exit"/>
    </vehicle>
    <vehicle id="L2-CV-126" type="L2-CV-" depart="529.20">
        <route edges="top-approaching closed-lane remerging-lane left-exit"/>
    </vehicle>
    <vehicle id="L2-CV-127" type="L2-CV-Left-" depart="533.40">
        <route edges="left-long-approaching preparation"/>
    </vehicle>
    <vehicle id="L2-CV-128" type="L2-CV-" depart="537.60">
        <route edges="top-approaching bottom-exit"/>
    </vehicle>
    <vehicle id="L2-CV-129" type="L2-CV-" depart="541.80">
        <route edges="right-approaching bottom-exit"/>
    </vehicle>
    <vehicle id="L2-CV-130" type="L2-CV-" depart="546.00">
        <route edges="bottom-approaching top-exit"/>
    </vehicle>
    <vehicle id="L2-CV-132" type="L2-CV-" depart="554.40">
        <route edges="top-approaching closed-lane remerging-lane left-exit"/>
    </vehicle>
    <vehicle id="L2-CV-134" type="L2-CV-" depart="562.80">
        <route edges="bottom-approaching right-exit"/>
    </vehicle>
    <vehicle id="L2-CV-135" type="L2-CV-" depart="567.00">
        <route edges="bottom-approaching top-exit"/>
    </vehicle>
    <vehicle id="L2-CV-136" type="L2-CV-Left-" depart="571.20">
        <route edges="left-long-approaching preparation"/>
    </vehicle>
    <vehicle id="L2-CV-137" type="L2-CV-" depart="575.40">
        <route edges="top-approaching closed-lane remerging-lane left-exit"/>
    </vehicle>
    <vehicle id="L2-CV-139" type="L2-CV-" depart="583.80">
        <route edges="bottom-approaching right-exit"/>
    </vehicle>
    <vehicle id="L2-CV-141" type="L2-CV-" depart="592.20">
        <route edges="top-approaching closed-lane remerging-lane left-exit"/>
    </vehicle>
    <vehicle id="L2-CV-142" type="L2-CV-" depart="596.40">
        <route edges="right-approaching closed-lane remerging-lane left-exit"/>
    </vehicle>
    <vehicle id="L2-CV-143" type="L2-CV-Right-" depart="600.60">
        <route edges="left-long-approaching preparation left-short-approaching bottom-exit"/>
    </vehicle>
    <vehicle id="L2-CV-145" type="L2-CV-" depart="609.00">
        <route edges="top-approaching bottom-exit"/>
    </vehicle>
    <vehicle id="L2-CV-146" type="L2-CV-" depart="613.20">
        <route edges="bottom-approaching right-exit"/>
    </vehicle>
    <vehicle id="L2-CV-147" type="L2-CV-" depart="617.40">
        <route edges="top-approaching right-exit"/>
    </vehicle>
    <vehicle id="L2-CV-149" type="L2-CV-" depart="625.80">
        <route edges="left-long-approaching preparation left-short-approaching right-exit"/>
    </vehicle>
    <vehicle id="L2-CV-150" type="L2-CV-Right-" depart="630.00">
        <route edges="left-long-approaching preparation left-short-approaching bottom-exit"/>
    </vehicle>
    <vehicle id="L2-CV-151" type="L2-CV-" depart="634.20">
        <route edges="bottom-approaching closed-lane remerging-lane left-exit"/>
    </vehicle>
    <vehicle id="L2-CV-152" type="L2-CV-" depart="638.40">
        <route edges="top-approaching closed-lane remerging-lane left-exit"/>
    </vehicle>
    <vehicle id="L2-CV-154" type="L2-CV-" depart="646.80">
        <route edges="top-approaching closed-lane remerging-lane left-exit"/>
    </vehicle>
    <vehicle id="L2-CV-156" type="L2-CV-Left-" depart="655.20">
        <route edges="left-long-approaching preparation"/>
    </vehicle>
    <vehicle id="L2-CV-157" type="L2-CV-" depart="659.40">
        <route edges="top-approaching closed-lane remerging-lane left-exit"/>
    </vehicle>
    <vehicle id="L2-CV-158" type="L2-CV-" depart="663.60">
        <route edges="left-long-approaching preparation left-short-approaching right-exit"/>
    </vehicle>
    <vehicle id="L2-CV-162" type="L2-CV-" depart="680.40">
        <route edges="right-approaching bottom-exit"/>
    </vehicle>
    <vehicle id="L2-CV-163" type="L2-CV-" depart="684.60">
        <route edges="bottom-approaching right-exit"/>
    </vehicle>
    <vehicle id="L2-CV-164" type="L2-CV-Left-" depart="688.80">
        <route edges="left-long-approaching preparation"/>
    </vehicle>
    <vehicle id="L2-CV-165" type="L2-CV-Left-" depart="693.00">
        <route edges="left-long-approaching preparation"/>
    </vehicle>
    <vehicle id="L2-CV-167" type="L2-CV-" depart="701.40">
        <route edges="top-approaching bottom-exit"/>
    </vehicle>
    <vehicle id="L2-CV-168" type="L2-CV-" depart="705.60">
        <route edges="top-approaching bottom-exit"/>
    </vehicle>
    <vehicle id="L2-CV-170" type="L2-CV-" depart="714.00">
        <route edges="top-approaching closed-lane remerging-lane left-exit"/>
    </vehicle>
    <vehicle id="L2-CV-171" type="L2-CV-" depart="718.20">
        <route edges="bottom-approaching right-exit"/>
    </vehicle>
    <vehicle id="L2-CV-172" type="L2-CV-" depart="722.40">
        <route edges="top-approaching closed-lane remerging-lane left-exit"/>
    </vehicle>
    <vehicle id="L2-CV-173" type="L2-CV-" depart="726.60">
        <route edges="top-approaching bottom-exit"/>
    </vehicle>
    <vehicle id="L2-CV-174" type="L2-CV-" depart="730.80">
        <route edges="top-approaching bottom-exit"/>
    </vehicle>
    <vehicle id="L2-CV-175" type="L2-CV-Left-" depart="735.00">
        <route edges="left-long-approaching preparation"/>
    </vehicle>
    <vehicle id="L2-CV-177" type="L2-CV-" depart="743.40">
        <route edges="top-approaching right-exit"/>
    </vehicle>
    <vehicle id="L2-CV-178" type="L2-CV-" depart="747.60">
        <route edges="right-approaching bottom-exit"/>
    </vehicle>
    <vehicle id="L2-CV-179" type="L2-CV-Right-" depart="751.80">
        <route edges="left-long-approaching preparation left-short-approaching bottom-exit"/>
    </vehicle>
    <vehicle id="L2-CV-181" type="L2-CV-Right-" depart="760.20">
        <route edges="left-long-approaching preparation left-short-approaching bottom-exit"/>
    </vehicle>
    <vehicle id="L2-CV-184" type="L2-CV-" depart="772.80">
        <route edges="top-approaching closed-lane remerging-lane left-exit"/>
    </vehicle>
    <vehicle id="L2-CV-186" type="L2-CV-Right-" depart="781.20">
        <route edges="left-long-approaching preparation left-short-approaching bottom-exit"/>
    </vehicle>
    <vehicle id="L2-CV-187" type="L2-CV-" depart="785.40">
        <route edges="right-approaching closed-lane remerging-lane left-exit"/>
    </vehicle>
    <vehicle id="L2-CV-188" type="L2-CV-" depart="789.60">
        <route edges="right-approaching bottom-exit"/>
    </vehicle>
    <vehicle id="L2-CV-189" type="L2-CV-Right-" depart="793.80">
        <route edges="left-long-approaching preparation left-short-approaching bottom-exit"/>
    </vehicle>
    <vehicle id="L2-CV-190" type="L2-CV-" depart="798.00">
        <route edges="bottom-approaching closed-lane remerging-lane left-exit"/>
    </vehicle>
    <vehicle id="L2-CV-191" type="L2-CV-" depart="802.20">
        <route edges="top-approaching closed-lane remerging-lane left-exit"/>
    </vehicle>
    <vehicle id="L2-CV-192" type="L2-CV-" depart="806.40">
        <route edges="left-long-approaching preparation left-short-approaching right-exit"/>
    </vehicle>
    <vehicle id="L2-CV-195" type="L2-CV-" depart="819.00">
        <route edges="right-approaching closed-lane remerging-lane left-exit"/>
    </vehicle>
    <vehicle id="L2-CV-197" type="L2-CV-" depart="827.40">
        <route edges="bottom-approaching closed-lane remerging-lane left-exit"/>
    </vehicle>
    <vehicle id="L2-CV-198" type="L2-CV-Right-" depart="831.60">
        <route edges="left-long-approaching preparation left-short-approaching bottom-exit"/>
    </vehicle>
    <vehicle id="L2-CV-199" type="L2-CV-" depart="835.80">
        <route edges="left-long-approaching preparation left-short-approaching right-exit"/>
    </vehicle>
    <vehicle id="L2-CV-201" type="L2-CV-" depart="844.20">
        <route edges="left-long-approaching preparation left-short-approaching right-exit"/>
    </vehicle>
    <vehicle id="L2-CV-203" type="L2-CV-" depart="852.60">
        <route edges="right-approaching top-exit"/>
    </vehicle>
    <vehicle id="L2-CV-204" type="L2-CV-" depart="856.80">
        <route edges="bottom-approaching top-exit"/>
    </vehicle>
    <vehicle id="L2-CV-205" type="L2-CV-" depart="861.00">
        <route edges="top-approaching closed-lane remerging-lane left-exit"/>
    </vehicle>
    <vehicle id="L2-CV-206" type="L2-CV-" depart="865.20">
        <route edges="right-approaching top-exit"/>
    </vehicle>
    <vehicle id="L2-CV-207" type="L2-CV-" depart="869.40">
        <route edges="left-long-approaching preparation left-short-approaching right-exit"/>
    </vehicle>
    <vehicle id="L2-CV-210" type="L2-CV-" depart="882.00">
        <route edges="top-approaching right-exit"/>
    </vehicle>
    <vehicle id="L2-CV-211" type="L2-CV-" depart="886.20">
        <route edges="bottom-approaching closed-lane remerging-lane left-exit"/>
    </vehicle>
    <vehicle id="L2-CV-212" type="L2-CV-" depart="890.40">
        <route edges="bottom-approaching right-exit"/>
    </vehicle>
    <vehicle id="L2-CV-213" type="L2-CV-" depart="894.60">
        <route edges="top-approaching bottom-exit"/>
    </vehicle>
    <vehicle id="L2-CV-215" type="L2-CV-" depart="903.00">
        <route edges="left-long-approaching preparation left-short-approaching right-exit"/>
    </vehicle>
    <vehicle id="L2-CV-216" type="L2-CV-" depart="907.20">
        <route edges="bottom-approaching right-exit"/>
    </vehicle>
    <vehicle id="L2-CV-217" type="L2-CV-" depart="911.40">
        <route edges="bottom-approaching top-exit"/>
    </vehicle>
    <vehicle id="L2-CV-218" type="L2-CV-" depart="915.60">
        <route edges="top-approaching right-exit"/>
    </vehicle>
    <vehicle id="L2-CV-219" type="L2-CV-Left-" depart="919.80">
        <route edges="left-long-approaching preparation"/>
    </vehicle>
    <vehicle id="L2-CV-220" type="L2-CV-" depart="924.00">
        <route edges="top-approaching bottom-exit"/>
    </vehicle>
    <vehicle id="L2-CV-223" type="L2-CV-Left-" depart="936.60">
        <route edges="left-long-approaching preparation"/>
    </vehicle>
    <vehicle id="L2-CV-224" type="L2-CV-" depart="940.80">
        <route edges="top-approaching closed-lane remerging-lane left-exit"/>
    </vehicle>
    <vehicle id="L2-CV-225" type="L2-CV-" depart="945.00">
        <route edges="top-approaching closed-lane remerging-lane left-exit"/>
    </vehicle>
    <vehicle id="L2-CV-226" type="L2-CV-" depart="949.20">
        <route edges="bottom-approaching closed-lane remerging-lane left-exit"/>
    </vehicle>
    <vehicle id="L2-CV-227" type="L2-CV-" depart="953.40">
        <route edges="bottom-approaching top-exit"/>
    </vehicle>
    <vehicle id="L2-CV-228" type="L2-CV-" depart="957.60">
        <route edges="top-approaching bottom-exit"/>
    </vehicle>
    <vehicle id="L2-CV-229" type="L2-CV-" depart="961.80">
        <route edges="right-approaching closed-lane remerging-lane left-exit"/>
    </vehicle>
    <vehicle id="L2-CV-230" type="L2-CV-" depart="966.00">
        <route edges="bottom-approaching closed-lane remerging-lane left-exit"/>
    </vehicle>
    <vehicle id="L2-CV-233" type="L2-CV-Right-" depart="978.60">
        <route edges="left-long-approaching preparation left-short-approaching bottom-exit"/>
    </vehicle>
    <vehicle id="L2-CV-235" type="L2-CV-" depart="987.00">
        <route edges="top-approaching bottom-exit"/>
    </vehicle>
    <vehicle id="L2-CV-236" type="L2-CV-" depart="991.20">
        <route edges="left-long-approaching preparation left-short-approaching right-exit"/>
    </vehicle>
    <vehicle id="L2-CV-237" type="L2-CV-" depart="995.40">
        <route edges="left-long-approaching preparation left-short-approaching right-exit"/>
    </vehicle>
    <vehicle id="L2-CV-238" type="L2-CV-" depart="999.60">
        <route edges="left-long-approaching preparation left-short-approaching right-exit"/>
    </vehicle>
    <vehicle id="L2-CV-240" type="L2-CV-" depart="1008.00">
        <route edges="top-approaching right-exit"/>
    </vehicle>
    <vehicle id="L2-CV-241" type="L2-CV-Left-" depart="1012.20">
        <route edges="left-long-approaching preparation"/>
    </vehicle>
    <vehicle id="L2-CV-242" type="L2-CV-" depart="1016.40">
        <route edges="top-approaching right-exit"/>
    </vehicle>
    <vehicle id="L2-CV-244" type="L2-CV-" depart="1024.80">
        <route edges="bottom-approaching top-exit"/>
    </vehicle>
    <vehicle id="L2-CV-245" type="L2-CV-" depart="1029.00">
        <route edges="bottom-approaching right-exit"/>
    </vehicle>
    <vehicle id="L2-CV-246" type="L2-CV-" depart="1033.20">
        <route edges="right-approaching top-exit"/>
    </vehicle>
    <vehicle id="L2-CV-249" type="L2-CV-" depart="1045.80">
        <route edges="right-approaching closed-lane remerging-lane left-exit"/>
    </vehicle>
    <vehicle id="L2-CV-251" type="L2-CV-" depart="1054.20">
        <route edges="right-approaching bottom-exit"/>
    </vehicle>
    <vehicle id="L2-CV-254" type="L2-CV-" depart="1066.80">
        <route edges="top-approaching right-exit"/>
    </vehicle>
    <vehicle id="L2-CV-255" type="L2-CV-" depart="1071.00">
        <route edges="left-long-approaching preparation left-short-approaching right-exit"/>
    </vehicle>
    <vehicle id="L2-CV-256" type="L2-CV-Right-" depart="1075.20">
        <route edges="left-long-approaching preparation left-short-approaching bottom-exit"/>
    </vehicle>
    <vehicle id="L2-CV-257" type="L2-CV-" depart="1079.40">
        <route edges="bottom-approaching closed-lane remerging-lane left-exit"/>
    </vehicle>
    <vehicle id="L2-CV-258" type="L2-CV-" depart="1083.60">
        <route edges="right-approaching top-exit"/>
    </vehicle>
    <vehicle id="L2-CV-259" type="L2-CV-" depart="1087.80">
        <route edges="top-approaching right-exit"/>
    </vehicle>
    <vehicle id="L2-CV-260" type="L2-CV-" depart="1092.00">
        <route edges="top-approaching closed-lane remerging-lane left-exit"/>
    </vehicle>
    <vehicle id="L2-CV-261" type="L2-CV-" depart="1096.20">
        <route edges="top-approaching closed-lane remerging-lane left-exit"/>
    </vehicle>
    <vehicle id="L2-CV-262" type="L2-CV-" depart="1100.40">
        <route edges="right-approaching top-exit"/>
    </vehicle>
    <vehicle id="L2-CV-263" type="L2-CV-Right-" depart="1104.60">
        <route edges="left-long-approaching preparation left-short-approaching bottom-exit"/>
    </vehicle>
    <vehicle id="L2-CV-265" type="L2-CV-Right-" depart="1113.00">
        <route edges="left-long-approaching preparation left-short-approaching bottom-exit"/>
    </vehicle>
    <vehicle id="L2-CV-267" type="L2-CV-Left-" depart="1121.40">
        <route edges="left-long-approaching preparation"/>
    </vehicle>
    <vehicle id="L2-CV-269" type="L2-CV-" depart="1129.80">
        <route edges="top-approaching right-exit"/>
    </vehicle>
    <vehicle id="L2-CV-270" type="L2-CV-" depart="1134.00">
        <route edges="left-long-approaching preparation left-short-approaching right-exit"/>
    </vehicle>
    <vehicle id="L2-CV-272" type="L2-CV-" depart="1142.40">
        <route edges="right-approaching closed-lane remerging-lane left-exit"/>
    </vehicle>
    <vehicle id="L2-CV-276" type="L2-CV-" depart="1159.20">
        <route edges="top-approaching right-exit"/>
    </vehicle>
    <vehicle id="L2-CV-278" type="L2-CV-" depart="1167.60">
        <route edges="right-approaching top-exit"/>
    </vehicle>
    <vehicle id="L2-CV-279" type="L2-CV-" depart="1171.80">
        <route edges="right-approaching bottom-exit"/>
    </vehicle>
    <vehicle id="L2-CV-280" type="L2-CV-" depart="1176.00">
        <route edges="top-approaching closed-lane remerging-lane left-exit"/>
    </vehicle>
    <vehicle id="L2-CV-281" type="L2-CV-Right-" depart="1180.20">