<?xml version="1.0" ?><!-- generated on 03/25/21 15:48:02 by Eclipse SUMO duarouter Version 1.8.0
<configuration xmlns:xsi="http://www.w3.org/2001/XMLSchema-instance" xsi:noNamespaceSchemaLocation="http://sumo.dlr.de/xsd/duarouterConfiguration.xsd">

    <input>
        <net-file value="Roadworks/RoadworksIntersection.net.xml"/>
        <route-files value="trips.trips.xml"/>
    </input>

    <output>
        <output-file value="Roadworks/BaselinePenetration3/Route-Files/L2-CV-Route.rou.xml"/>
        <alternatives-output value="Roadworks/BaselinePenetration3/Route-Files/L2-CV-Route.rou.alt.xml"/>
    </output>

    <time>
        <begin value="0"/>
        <end value="3600"/>
    </time>

    <report>
        <no-warnings value="true"/>
        <ignore-errors value="true"/>
        <no-step-log value="true"/>
    </report>

</configuration>
--><routes xmlns:xsi="http://www.w3.org/2001/XMLSchema-instance" xsi:noNamespaceSchemaLocation="http://sumo.dlr.de/xsd/routes_file.xsd">
    <vehicle id="L2-CV-0" type="L2-CV-" depart="0.00">
        <route edges="bottom-approaching top-exit"/>
    </vehicle>
    <vehicle id="L2-CV-1" type="L2-CV-" depart="4.20">
        <route edges="bottom-approaching right-exit"/>
    </vehicle>
    <vehicle id="L2-CV-3" type="L2-CV-" depart="12.60">
        <route edges="top-approaching bottom-exit"/>
    </vehicle>
    <vehicle id="L2-CV-4" type="L2-CV-" depart="16.80">
        <route edges="right-approaching closed-lane remerging-lane left-exit"/>
    </vehicle>
    <vehicle id="L2-CV-6" type="L2-CV-" depart="25.20">
        <route edges="bottom-approaching top-exit"/>
    </vehicle>
    <vehicle id="L2-CV-8" type="L2-CV-" depart="33.60">
        <route edges="bottom-approaching closed-lane remerging-lane left-exit"/>
    </vehicle>
    <vehicle id="L2-CV-9" type="L2-CV-Left-" depart="37.80">
        <route edges="left-long-approaching preparation"/>
    </vehicle>
    <vehicle id="L2-CV-10" type="L2-CV-Right-" depart="42.00">
        <route edges="left-long-approaching preparation left-short-approaching bottom-exit"/>
    </vehicle>
    <vehicle id="L2-CV-11" type="L2-CV-Left-" depart="46.20">
        <route edges="left-long-approaching preparation"/>
    </vehicle>
    <vehicle id="L2-CV-12" type="L2-CV-" depart="50.40">
        <route edges="bottom-approaching right-exit"/>
    </vehicle>
    <vehicle id="L2-CV-13" type="L2-CV-" depart="54.60">
        <route edges="left-long-approaching preparation left-short-approaching right-exit"/>
    </vehicle>
    <vehicle id="L2-CV-14" type="L2-CV-" depart="58.80">
        <route edges="left-long-approaching preparation left-short-approaching right-exit"/>
    </vehicle>
    <vehicle id="L2-CV-15" type="L2-CV-" depart="63.00">
        <route edges="left-long-approaching preparation left-short-approaching right-exit"/>
    </vehicle>
    <vehicle id="L2-CV-16" type="L2-CV-" depart="67.20">
        <route edges="top-approaching right-exit"/>
    </vehicle>
    <vehicle id="L2-CV-18" type="L2-CV-" depart="75.60">
        <route edges="top-approaching closed-lane remerging-lane left-exit"/>
    </vehicle>
    <vehicle id="L2-CV-19" type="L2-CV-" depart="79.80">
        <route edges="bottom-approaching top-exit"/>
    </vehicle>
    <vehicle id="L2-CV-21" type="L2-CV-" depart="88.20">
        <route edges="top-approaching closed-lane remerging-lane left-exit"/>
    </vehicle>
    <vehicle id="L2-CV-22" type="L2-CV-Left-" depart="92.40">
        <route edges="left-long-approaching preparation"/>
    </vehicle>
    <vehicle id="L2-CV-23" type="L2-CV-" depart="96.60">
        <route edges="bottom-approaching top-exit"/>
    </vehicle>
    <vehicle id="L2-CV-24" type="L2-CV-" depart="100.80">
        <route edges="bottom-approaching right-exit"/>
    </vehicle>
    <vehicle id="L2-CV-25" type="L2-CV-" depart="105.00">
        <route edges="right-approaching top-exit"/>
    </vehicle>
    <vehicle id="L2-CV-29" type="L2-CV-" depart="121.80">
        <route edges="bottom-approaching top-exit"/>
    </vehicle>
    <vehicle id="L2-CV-32" type="L2-CV-" depart="134.40">
        <route edges="bottom-approaching closed-lane remerging-lane left-exit"/>
    </vehicle>
    <vehicle id="L2-CV-34" type="L2-CV-Left-" depart="142.80">
        <route edges="left-long-approaching preparation"/>
    </vehicle>
    <vehicle id="L2-CV-35" type="L2-CV-" depart="147.00">
        <route edges="top-approaching bottom-exit"/>
    </vehicle>
    <vehicle id="L2-CV-36" type="L2-CV-Right-" depart="151.20">
        <route edges="left-long-approaching preparation left-short-approaching bottom-exit"/>
    </vehicle>
    <vehicle id="L2-CV-37" type="L2-CV-" depart="155.40">
        <route edges="right-approaching top-exit"/>
    </vehicle>
    <vehicle id="L2-CV-38" type="L2-CV-" depart="159.60">
        <route edges="bottom-approaching top-exit"/>
    </vehicle>
    <vehicle id="L2-CV-39" type="L2-CV-Right-" depart="163.80">
        <route edges="left-long-approaching preparation left-short-approaching bottom-exit"/>
    </vehicle>
    <vehicle id="L2-CV-40" type="L2-CV-" depart="168.00">
        <route edges="top-approaching closed-lane remerging-lane left-exit"/>
    </vehicle>
    <vehicle id="L2-CV-41" type="L2-CV-" depart="172.20">
        <route edges="bottom-approaching closed-lane remerging-lane left-exit"/>
    </vehicle>
    <vehicle id="L2-CV-42" type="L2-CV-" depart="176.40">
        <route edges="bottom-approaching closed-lane remerging-lane left-exit"/>
    </vehicle>
    <vehicle id="L2-CV-44" type="L2-CV-" depart="184.80">
        <route edges="right-approaching closed-lane remerging-lane left-exit"/>
    </vehicle>
    <vehicle id="L2-CV-46" type="L2-CV-" depart="193.20">
        <route edges="bottom-approaching right-exit"/>
    </vehicle>
    <vehicle id="L2-CV-47" type="L2-CV-Left-" depart="197.40">
        <route edges="left-long-approaching preparation"/>
    </vehicle>
    <vehicle id="L2-CV-49" type="L2-CV-" depart="205.80">
        <route edges="top-approaching bottom-exit"/>
    </vehicle>
    <vehicle id="L2-CV-51" type="L2-CV-" depart="214.20">
        <route edges="left-long-approaching preparation left-short-approaching right-exit"/>
    </vehicle>
    <vehicle id="L2-CV-52" type="L2-CV-" depart="218.40">
        <route edges="right-approaching closed-lane remerging-lane left-exit"/>
    </vehicle>
    <vehicle id="L2-CV-53" type="L2-CV-" depart="222.60">
        <route edges="top-approaching bottom-exit"/>
    </vehicle>
    <vehicle id="L2-CV-54" type="L2-CV-" depart="226.80">
        <route edges="top-approaching bottom-exit"/>
    </vehicle>
    <vehicle id="L2-CV-55" type="L2-CV-" depart="231.00">
        <route edges="top-approaching bottom-exit"/>
    </vehicle>
    <vehicle id="L2-CV-57" type="L2-CV-" depart="239.40">
        <route edges="top-approaching right-exit"/>
    </vehicle>
    <vehicle id="L2-CV-58" type="L2-CV-" depart="243.60">
        <route edges="bottom-approaching top-exit"/>
    </vehicle>
    <vehicle id="L2-CV-59" type="L2-CV-Right-" depart="247.80">
        <route edges="left-long-approaching preparation left-short-approaching bottom-exit"/>
    </vehicle>
    <vehicle id="L2-CV-61" type="L2-CV-Right-" depart="256.20">
        <route edges="left-long-approaching preparation left-short-approaching bottom-exit"/>
    </vehicle>
    <vehicle id="L2-CV-62" type="L2-CV-" depart="260.40">
        <route edges="bottom-approaching right-exit"/>
    </vehicle>
    <vehicle id="L2-CV-63" type="L2-CV-Right-" depart="264.60">
        <route edges="left-long-approaching preparation left-short-approaching bottom-exit"/>
    </vehicle>
    <vehicle id="L2-CV-64" type="L2-CV-" depart="268.80">
        <route edges="left-long-approaching preparation left-short-approaching right-exit"/>
    </vehicle>
    <vehicle id="L2-CV-65" type="L2-CV-" depart="273.00">
        <route edges="right-approaching closed-lane remerging-lane left-exit"/>
    </vehicle>
    <vehicle id="L2-CV-68" type="L2-CV-Right-" depart="285.60">
        <route edges="left-long-approaching preparation left-short-approaching bottom-exit"/>
    </vehicle>
    <vehicle id="L2-CV-70" type="L2-CV-" depart="294.00">
        <route edges="right-approaching bottom-exit"/>
    </vehicle>
    <vehicle id="L2-CV-72" type="L2-CV-" depart="302.40">
        <route edges="bottom-approaching top-exit"/>
    </vehicle>
    <vehicle id="L2-CV-74" type="L2-CV-" depart="310.80">
        <route edges="right-approaching bottom-exit"/>
    </vehicle>
    <vehicle id="L2-CV-75" type="L2-CV-" depart="315.00">
        <route edges="bottom-approaching right-exit"/>
    </vehicle>
    <vehicle id="L2-CV-77" type="L2-CV-" depart="323.40">
        <route edges="bottom-approaching right-exit"/>
    </vehicle>
    <vehicle id="L2-CV-78" type="L2-CV-" depart="327.60">
        <route edges="top-approaching right-exit"/>
    </vehicle>
    <vehicle id="L2-CV-80" type="L2-CV-" depart="336.00">
        <route edges="bottom-approaching closed-lane remerging-lane left-exit"/>
    </vehicle>
    <vehicle id="L2-CV-81" type="L2-CV-" depart="340.20">
        <route edges="right-approaching top-exit"/>
    </vehicle>
    <vehicle id="L2-CV-82" type="L2-CV-Left-" depart="344.40">
        <route edges="left-long-approaching preparation"/>
    </vehicle>
    <vehicle id="L2-CV-83" type="L2-CV-" depart="348.60">
        <route edges="top-approaching right-exit"/>
    </vehicle>
    <vehicle id="L2-CV-84" type="L2-CV-" depart="352.80">
        <route edges="right-approaching top-exit"/>
    </vehicle>
    <vehicle id="L2-CV-85" type="L2-CV-" depart="357.00">
        <route edges="top-approaching closed-lane remerging-lane left-exit"/>
    </vehicle>
    <vehicle id="L2-CV-86" type="L2-CV-" depart="361.20">
        <route edges="top-approaching bottom-exit"/>
    </vehicle>
    <vehicle id="L2-CV-87" type="L2-CV-Left-" depart="365.40">
        <route edges="left-long-approaching preparation"/>
    </vehicle>
    <vehicle id="L2-CV-88" type="L2-CV-" depart="369.60">
        <route edges="top-approaching closed-lane remerging-lane left-exit"/>
    </vehicle>
    <vehicle id="L2-CV-89" type="L2-CV-" depart="373.80">
        <route edges="left-long-approaching preparation left-short-approaching right-exit"/>
    </vehicle>
    <vehicle id="L2-CV-90" type="L2-CV-" depart="378.00">
        <route edges="top-approaching right-exit"/>
    </vehicle>
    <vehicle id="L2-CV-91" type="L2-CV-" depart="382.20">
        <route edges="top-approaching right-exit"/>
    </vehicle>
    <vehicle id="L2-CV-92" type="L2-CV-" depart="386.40">
        <route edges="top-approaching right-exit"/>
    </vehicle>
    <vehicle id="L2-CV-94" type="L2-CV-" depart="394.80">
        <route edges="left-long-approaching preparation left-short-approaching right-exit"/>
    </vehicle>
    <vehicle id="L2-CV-95" type="L2-CV-" depart="399.00">
        <route edges="top-approaching closed-lane remerging-lane left-exit"/>
    </vehicle>
    <vehicle id="L2-CV-96" type="L2-CV-" depart="403.20">
        <route edges="bottom-approaching right-exit"/>
    </vehicle>
    <vehicle id="L2-CV-98" type="L2-CV-" depart="411.60">
        <route edges="bottom-approaching top-exit"/>
    </vehicle>
    <vehicle id="L2-CV-100" type="L2-CV-" depart="420.00">
        <route edges="top-approaching closed-lane remerging-lane left-exit"/>
    </vehicle>
    <vehicle id="L2-CV-101" type="L2-CV-Left-" depart="424.20">
        <route edges="left-long-approaching preparation"/>
    </vehicle>
    <vehicle id="L2-CV-104" type="L2-CV-" depart="436.80">
        <route edges="right-approaching closed-lane remerging-lane left-exit"/>
    </vehicle>
    <vehicle id="L2-CV-105" type="L2-CV-" depart="441.00">
        <route edges="top-approaching right-exit"/>
    </vehicle>
    <vehicle id="L2-CV-106" type="L2-CV-" depart="445.20">
        <route edges="top-approaching closed-lane remerging-lane left-exit"/>
    </vehicle>
    <vehicle id="L2-CV-108" type="L2-CV-" depart="453.60">
        <route edges="left-long-approaching preparation left-short-approaching right-exit"/>
    </vehicle>
    <vehicle id="L2-CV-111" type="L2-CV-" depart="466.20">
        <route edges="bottom-approaching right-exit"/>
    </vehicle>
    <vehicle id="L2-CV-112" type="L2-CV-" depart="470.40">
        <route edges="right-approaching bottom-exit"/>
    </vehicle>
    <vehicle id="L2-CV-113" type="L2-CV-Left-" depart="474.60">
        <route edges="left-long-approaching preparation"/>
    </vehicle>
    <vehicle id="L2-CV-115" type="L2-CV-" depart="483.00">
        <route edges="bottom-approaching right-exit"/>
    </vehicle>
    <vehicle id="L2-CV-116" type="L2-CV-" depart="487.20">
        <route edges="top-approaching right-exit"/>
    </vehicle>
    <vehicle id="L2-CV-117" type="L2-CV-Right-" depart="491.40">
        <route edges="left-long-approaching preparation left-short-approaching bottom-exit"/>
    </vehicle>
    <vehicle id="L2-CV-119" type="L2-CV-" depart="499.80">
        <route edges="right-approaching closed-lane remerging-lane left-exit"/>
    </vehicle>
    <vehicle id="L2-CV-124" type="L2-CV-" depart="520.80">
        <route edges="right-approaching bottom-exit"/>
    </vehicle>
    <vehicle id="L2-CV-125" type="L2-CV-" depart="525.00">
        <route edges="right-approaching closed-lane remerging-lane left-exit"/>
    </vehicle>
    <vehicle id="L2-CV-126" type="L2-CV-" depart="529.20">
        <route edges="bottom-approaching closed-lane remerging-lane left-exit"/>
    </vehicle>
    <vehicle id="L2-CV-128" type="L2-CV-" depart="537.60">
        <route edges="top-approaching bottom-exit"/>
    </vehicle>
    <vehicle id="L2-CV-129" type="L2-CV-" depart="541.80">
        <route edges="bottom-approaching closed-lane remerging-lane left-exit"/>
    </vehicle>
    <vehicle id="L2-CV-130" type="L2-CV-" depart="546.00">
        <route edges="bottom-approaching right-exit"/>
    </vehicle>
    <vehicle id="L2-CV-133" type="L2-CV-" depart="558.60">
        <route edges="top-approaching right-exit"/>
    </vehicle>
    <vehicle id="L2-CV-134" type="L2-CV-Left-" depart="562.80">
        <route edges="left-long-approaching preparation"/>
    </vehicle>
    <vehicle id="L2-CV-135" type="L2-CV-" depart="567.00">
        <route edges="right-approaching closed-lane remerging-lane left-exit"/>
    </vehicle>
    <vehicle id="L2-CV-136" type="L2-CV-" depart="571.20">
        <route edges="right-approaching top-exit"/>
    </vehicle>
    <vehicle id="L2-CV-138" type="L2-CV-" depart="579.60">
        <route edges="bottom-approaching closed-lane remerging-lane left-exit"/>
    </vehicle>
    <vehicle id="L2-CV-139" type="L2-CV-Right-" depart="583.80">
        <route edges="left-long-approaching preparation left-short-approaching bottom-exit"/>
    </vehicle>
    <vehicle id="L2-CV-140" type="L2-CV-" depart="588.00">
        <route edges="top-approaching bottom-exit"/>
    </vehicle>
    <vehicle id="L2-CV-141" type="L2-CV-" depart="592.20">
        <route edges="top-approaching right-exit"/>
    </vehicle>
    <vehicle id="L2-CV-142" type="L2-CV-" depart="596.40">
        <route edges="right-approaching closed-lane remerging-lane left-exit"/>
    </vehicle>
    <vehicle id="L2-CV-143" type="L2-CV-" depart="600.60">
        <route edges="top-approaching right-exit"/>
    </vehicle>
    <vehicle id="L2-CV-145" type="L2-CV-" depart="609.00">
        <route edges="right-approaching top-exit"/>
    </vehicle>
    <vehicle id="L2-CV-147" type="L2-CV-" depart="617.40">
        <route edges="top-approaching right-exit"/>
    </vehicle>
    <vehicle id="L2-CV-148" type="L2-CV-" depart="621.60">
        <route edges="left-long-approaching preparation left-short-approaching right-exit"/>
    </vehicle>
    <vehicle id="L2-CV-149" type="L2-CV-Right-" depart="625.80">
        <route edges="left-long-approaching preparation left-short-approaching bottom-exit"/>
    </vehicle>
    <vehicle id="L2-CV-151" type="L2-CV-" depart="634.20">
        <route edges="top-approaching right-exit"/>
    </vehicle>
    <vehicle id="L2-CV-152" type="L2-CV-" depart="638.40">
        <route edges="top-approaching closed-lane remerging-lane left-exit"/>
    </vehicle>
    <vehicle id="L2-CV-153" type="L2-CV-" depart="642.60">
        <route edges="bottom-approaching right-exit"/>
    </vehicle>
    <vehicle id="L2-CV-155" type="L2-CV-" depart="651.00">
        <route edges="right-approaching bottom-exit"/>
    </vehicle>
    <vehicle id="L2-CV-156" type="L2-CV-Right-" depart="655.20">
        <route edges="left-long-approaching preparation left-short-approaching bottom-exit"/>
    </vehicle>
    <vehicle id="L2-CV-157" type="L2-CV-Left-" depart="659.40">
        <route edges="left-long-approaching preparation"/>
    </vehicle>
    <vehicle id="L2-CV-158" type="L2-CV-" depart="663.60">
        <route edges="left-long-approaching preparation left-short-approaching right-exit"/>
    </vehicle>
    <vehicle id="L2-CV-159" type="L2-CV-" depart="667.80">
        <route edges="right-approaching bottom-exit"/>
    </vehicle>
    <vehicle id="L2-CV-160" type="L2-CV-" depart="672.00">
        <route edges="right-approaching bottom-exit"/>
    </vehicle>
    <vehicle id="L2-CV-161" type="L2-CV-" depart="676.20">
        <route edges="bottom-approaching right-exit"/>
    </vehicle>
    <vehicle id="L2-CV-162" type="L2-CV-" depart="680.40">
        <route edges="bottom-approaching top-exit"/>
    </vehicle>
    <vehicle id="L2-CV-163" type="L2-CV-" depart="684.60">
        <route edges="left-long-approaching preparation left-short-approaching right-exit"/>
    </vehicle>
    <vehicle id="L2-CV-164" type="L2-CV-" depart="688.80">
        <route edges="top-approaching bottom-exit"/>
    </vehicle>
    <vehicle id="L2-CV-165" type="L2-CV-" depart="693.00">
        <route edges="top-approaching bottom-exit"/>
    </vehicle>
    <vehicle id="L2-CV-167" type="L2-CV-" depart="701.40">
        <route edges="top-approaching closed-lane remerging-lane left-exit"/>
    </vehicle>
    <vehicle id="L2-CV-168" type="L2-CV-" depart="705.60">
        <route edges="top-approaching right-exit"/>
    </vehicle>
    <vehicle id="L2-CV-169" type="L2-CV-Right-" depart="709.80">
        <route edges="left-long-approaching preparation left-short-approaching bottom-exit"/>
    </vehicle>
    <vehicle id="L2-CV-170" type="L2-CV-" depart="714.00">
        <route edges="bottom-approaching closed-lane remerging-lane left-exit"/>
    </vehicle>
    <vehicle id="L2-CV-172" type="L2-CV-" depart="722.40">
        <route edges="top-approaching closed-lane remerging-lane left-exit"/>
    </vehicle>
    <vehicle id="L2-CV-173" type="L2-CV-" depart="726.60">
        <route edges="right-approaching bottom-exit"/>
    </vehicle>
    <vehicle id="L2-CV-174" type="L2-CV-" depart="730.80">
        <route edges="bottom-approaching right-exit"/>
    </vehicle>
    <vehicle id="L2-CV-175" type="L2-CV-" depart="735.00">
        <route edges="top-approaching closed-lane remerging-lane left-exit"/>
    </vehicle>
    <vehicle id="L2-CV-178" type="L2-CV-" depart="747.60">
        <route edges="right-approaching closed-lane remerging-lane left-exit"/>
    </vehicle>
    <vehicle id="L2-CV-179" type="L2-CV-" depart="751.80">
        <route edges="right-approaching top-exit"/>
    </vehicle>
    <vehicle id="L2-CV-180" type="L2-CV-" depart="756.00">
        <route edges="top-approaching right-exit"/>
    </vehicle>
    <vehicle id="L2-CV-181" type="L2-CV-" depart="760.20">
        <route edges="right-approaching closed-lane remerging-lane left-exit"/>
    </vehicle>
    <vehicle id="L2-CV-182" type="L2-CV-" depart="764.40">
        <route edges="top-approaching closed-lane remerging-lane left-exit"/>
    </vehicle>
    <vehicle id="L2-CV-183" type="L2-CV-" depart="768.60">
        <route edges="top-approaching closed-lane remerging-lane left-exit"/>
    </vehicle>
    <vehicle id="L2-CV-185" type="L2-CV-" depart="777.00">
        <route edges="right-approaching closed-lane remerging-lane left-exit"/>
    </vehicle>
    <vehicle id="L2-CV-187" type="L2-CV-" depart="785.40">
        <route edges="left-long-approaching preparation left-short-approaching right-exit"/>
    </vehicle>
    <vehicle id="L2-CV-189" type="L2-CV-" depart="793.80">
        <route edges="left-long-approaching preparation left-short-approaching right-exit"/>
    </vehicle>
    <vehicle id="L2-CV-190" type="L2-CV-" depart="798.00">
        <route edges="right-approaching bottom-exit"/>
    </vehicle>
    <vehicle id="L2-CV-191" type="L2-CV-" depart="802.20">
        <route edges="bottom-approaching top-exit"/>
    </vehicle>
    <vehicle id="L2-CV-192" type="L2-CV-" depart="806.40">
        <route edges="bottom-approaching top-exit"/>
    </vehicle>
    <vehicle id="L2-CV-193" type="L2-CV-" depart="810.60">
        <route edges="top-approaching bottom-exit"/>
    </vehicle>
    <vehicle id="L2-CV-194" type="L2-CV-" depart="814.80">
        <route edges="right-approaching closed-lane remerging-lane left-exit"/>
    </vehicle>
    <vehicle id="L2-CV-195" type="L2-CV-" depart="819.00">
        <route edges="top-approaching bottom-exit"/>
    </vehicle>
    <vehicle id="L2-CV-197" type="L2-CV-" depart="827.40">
        <route edges="right-approaching bottom-exit"/>
    </vehicle>
    <vehicle id="L2-CV-198" type="L2-CV-Left-" depart="831.60">
        <route edges="left-long-approaching preparation"/>
    </vehicle>
    <vehicle id="L2-CV-201" type="L2-CV-" depart="844.20">
        <route edges="bottom-approaching top-exit"/>
    </vehicle>
    <vehicle id="L2-CV-202" type="L2-CV-Left-" depart="848.40">
        <route edges="left-long-approaching preparation"/>
    </vehicle>
    <vehicle id="L2-CV-203" type="L2-CV-Left-" depart="852.60">
        <route edges="left-long-approaching preparation"/>
    </vehicle>
    <vehicle id="L2-CV-204" type="L2-CV-" depart="856.80">
        <route edges="bottom-approaching top-exit"/>
    </vehicle>
    <vehicle id="L2-CV-205" type="L2-CV-" depart="861.00">
        <route edges="bottom-approaching right-exit"/>
    </vehicle>
    <vehicle id="L2-CV-206" type="L2-CV-Left-" depart="865.20">
        <route edges="left-long-approaching preparation"/>
    </vehicle>
    <vehicle id="L2-CV-207" type="L2-CV-" depart="869.40">
        <route edges="right-approaching top-exit"/>
    </vehicle>
    <vehicle id="L2-CV-208" type="L2-CV-" depart="873.60">
        <route edges="top-approaching closed-lane remerging-lane left-exit"/>
    </vehicle>
    <vehicle id="L2-CV-210" type="L2-CV-" depart="882.00">
        <route edges="right-approaching top-exit"/>
    </vehicle>
    <vehicle id="L2-CV-211" type="L2-CV-" depart="886.20">
        <route edges="right-approaching closed-lane remerging-lane left-exit"/>
    </vehicle>
    <vehicle id="L2-CV-213" type="L2-CV-" depart="894.60">
        <route edges="left-long-approaching preparation left-short-approaching right-exit"/>
    </vehicle>
    <vehicle id="L2-CV-215" type="L2-CV-" depart="903.00">
        <route edges="bottom-approaching closed-lane remerging-lane left-exit"/>
    </vehicle>
    <vehicle id="L2-CV-216" type="L2-CV-" depart="907.20">
        <route edges="right-approaching bottom-exit"/>
    </vehicle>
    <vehicle id="L2-CV-217" type="L2-CV-" depart="911.40">
        <route edges="left-long-approaching preparation left-short-approaching right-exit"/>
    </vehicle>
    <vehicle id="L2-CV-218" type="L2-CV-" depart="915.60">
        <route edges="left-long-approaching preparation left-short-approaching right-exit"/>
    </vehicle>
    <vehicle id="L2-CV-219" type="L2-CV-" depart="919.80">
        <route edges="right-approaching closed-lane remerging-lane left-exit"/>
    </vehicle>
    <vehicle id="L2-CV-220" type="L2-CV-" depart="924.00">
        <route edges="bottom-approaching right-exit"/>
    </vehicle>
    <vehicle id="L2-CV-221" type="L2-CV-" depart="928.20">
        <route edges="right-approaching bottom-exit"/>
    </vehicle>
    <vehicle id="L2-CV-222" type="L2-CV-" depart="932.40">
        <route edges="top-approaching right-exit"/>
    </vehicle>
    <vehicle id="L2-CV-224" type="L2-CV-" depart="940.80">
        <route edges="left-long-approaching preparation left-short-approaching right-exit"/>
    </vehicle>
    <vehicle id="L2-CV-225" type="L2-CV-" depart="945.00">
        <route edges="left-long-approaching preparation left-short-approaching right-exit"/>
    </vehicle>
    <vehicle id="L2-CV-226" type="L2-CV-" depart="949.20">
        <route edges="bottom-approaching closed-lane remerging-lane left-exit"/>
    </vehicle>
    <vehicle id="L2-CV-227" type="L2-CV-" depart="953.40">
        <route edges="right-approaching top-exit"/>
    </vehicle>
    <vehicle id="L2-CV-228" type="L2-CV-" depart="957.60">
        <route edges="right-approaching top-exit"/>
    </vehicle>
    <vehicle id="L2-CV-231" type="L2-CV-Right-" depart="970.20">
        <route edges="left-long-approaching preparation left-short-approaching bottom-exit"/>
    </vehicle>
    <vehicle id="L2-CV-232" type="L2-CV-" depart="974.40">
        <route edges="top-approaching right-exit"/>
    </vehicle>
    <vehicle id="L2-CV-234" type="L2-CV-" depart="982.80">
        <route edges="bottom-approaching right-exit"/>
    </vehicle>
    <vehicle id="L2-CV-235" type="L2-CV-" depart="987.00">
        <route edges="right-approaching bottom-exit"/>
    </vehicle>
    <vehicle id="L2-CV-238" type="L2-CV-" depart="999.60">
        <route edges="top-approaching bottom-exit"/>
    </vehicle>
    <vehicle id="L2-CV-239" type="L2-CV-" depart="1003.80">
        <route edges="bottom-approaching right-exit"/>
    </vehicle>
    <vehicle id="L2-CV-241" type="L2-CV-Left-" depart="1012.20">
        <route edges="left-long-approaching preparation"/>
    </vehicle>
    <vehicle id="L2-CV-242" type="L2-CV-" depart="1016.40">
        <route edges="bottom-approaching closed-lane remerging-lane left-exit"/>
    </vehicle>
    <vehicle id="L2-CV-243" type="L2-CV-" depart="1020.60">
        <route edges="top-approaching right-exit"/>
    </vehicle>
    <vehicle id="L2-CV-244" type="L2-CV-" depart="1024.80">
        <route edges="left-long-approaching preparation left-short-approaching right-exit"/>
    </vehicle>
    <vehicle id="L2-CV-245" type="L2-CV-" depart="1029.00">
        <route edges="left-long-approaching preparation left-short-approaching right-exit"/>
    </vehicle>
    <vehicle id="L2-CV-247" type="L2-CV-" depart="1037.40">
        <route edges="bottom-approaching top-exit"/>
    </vehicle>
    <vehicle id="L2-CV-248" type="L2-CV-" depart="1041.60">
        <route edges="top-approaching right-exit"/>
    </vehicle>
    <vehicle id="L2-CV-250" type="L2-CV-" depart="1050.00">
        <route edges="left-long-approaching preparation left-short-approaching right-exit"/>
    </vehicle>
    <vehicle id="L2-CV-251" type="L2-CV-" depart="1054.20">
        <route edges="right-approaching bottom-exit"/>
    </vehicle>
    <vehicle id="L2-CV-252" type="L2-CV-" depart="1058.40">
        <route edges="top-approaching closed-lane remerging-lane left-exit"/>
    </vehicle>
    <vehicle id="L2-CV-253" type="L2-CV-" depart="1062.60">
        <route edges="right-approaching bottom-exit"/>
    </vehicle>
    <vehicle id="L2-CV-254" type="L2-CV-" depart="1066.80">
        <route edges="right-approaching bottom-exit"/>
    </vehicle>
    <vehicle id="L2-CV-257" type="L2-CV-" depart="1079.40">
        <route edges="bottom-approaching closed-lane remerging-lane left-exit"/>
    </vehicle>
    <vehicle id="L2-CV-258" type="L2-CV-" depart="1083.60">
        <route edges="top-approaching right-exit"/>
    </vehicle>
    <vehicle id="L2-CV-264" type="L2-CV-" depart="1108.80">
        <route edges="right-approaching closed-lane remerging-lane left-exit"/>
    </vehicle>
    <vehicle id="L2-CV-266" type="L2-CV-" depart="1117.20">
        <route edges="top-approaching bottom-exit"/>
    </vehicle>
    <vehicle id="L2-CV-267" type="L2-CV-" depart="1121.40">
        <route edges="bottom-approaching top-exit"/>
    </vehicle>
    <vehicle id="L2-CV-269" type="L2-CV-" depart="1129.80">
        <route edges="top-approaching right-exit"/>
    </vehicle>
    <vehicle id="L2-CV-270" type="L2-CV-" depart="1134.00">
        <route edges="right-approaching top-exit"/>
    </vehicle>
    <vehicle id="L2-CV-271" type="L2-CV-" depart="1138.20">
        <route edges="right-approaching closed-lane remerging-lane left-exit"/>
    </vehicle>
    <vehicle id="L2-CV-274" type="L2-CV-" depart="1150.80">
        <route edges="left-long-approaching preparation left-short-approaching right-exit"/>
    </vehicle>
    <vehicle id="L2-CV-276" type="L2-CV-Left-" depart="1159.20">
        <route edges="left-long-approaching preparation"/>
    </vehicle>
    <vehicle id="L2-CV-278" type="L2-CV-" depart="1167.60">
        <route edges="right-approaching closed-lane remerging-lane left-exit"/>
    </vehicle>
    <vehicle id="L2-CV-279" type="L2-CV-" depart="1171.80">
        <route edges="right-approaching bottom-exit"/>
    </vehicle>
    <vehicle id="L2-CV-281" type="L2-CV-" depart="1180.20">
        <route edges="right-approaching closed-lane remerging-lane left-exit"/>
    </vehicle>
    <vehicle id="L2-CV-284" type="L2-CV-" depart="1192.80">
        <route edges="left-long-approaching preparation left-short-approaching right-exit"/>
    </vehicle>
    <vehicle id="L2-CV-285" type="L2-CV-" depart="1197.00">
        <route edges="right-approaching closed-lane remerging-lane left-exit"/>
    </vehicle>
    <vehicle id="L2-CV-286" type="L2-CV-" depart="1201.20">
        <route edges="top-approaching bottom-exit"/>
    </vehicle>
    <vehicle id="L2-CV-287" type="L2-CV-Right-" depart="1205.40">
        <route edges="left-long-approaching preparation left-short-approaching bottom-exit"/>
    </vehicle>
    <vehicle id="L2-CV-289" type="L2-CV-" depart="1213.80">