<?xml version="1.0" ?><!-- generated on 03/26/21 01:36:23 by Eclipse SUMO duarouter Version 1.8.0
<configuration xmlns:xsi="http://www.w3.org/2001/XMLSchema-instance" xsi:noNamespaceSchemaLocation="http://sumo.dlr.de/xsd/duarouterConfiguration.xsd">

    <input>
        <net-file value="Roadworks/RoadworksIntersection.net.xml"/>
        <route-files value="trips.trips.xml"/>
    </input>

    <output>
        <output-file value="Roadworks/BaselinePenetration3/Route-Files/L2-CV-Route.rou.xml"/>
        <alternatives-output value="Roadworks/BaselinePenetration3/Route-Files/L2-CV-Route.rou.alt.xml"/>
    </output>

    <time>
        <begin value="0"/>
        <end value="3600"/>
    </time>

    <report>
        <no-warnings value="true"/>
        <ignore-errors value="true"/>
        <no-step-log value="true"/>
    </report>

</configuration>
--><routes xmlns:xsi="http://www.w3.org/2001/XMLSchema-instance" xsi:noNamespaceSchemaLocation="http://sumo.dlr.de/xsd/routes_file.xsd">
    <vehicle id="L2-CV-2" type="L2-CV-" depart="6.20">
        <route edges="bottom-approaching right-exit"/>
    </vehicle>
    <vehicle id="L2-CV-3" type="L2-CV-Left-" depart="9.30">
        <route edges="left-long-approaching preparation"/>
    </vehicle>
    <vehicle id="L2-CV-4" type="L2-CV-Left-" depart="12.40">
        <route edges="left-long-approaching preparation"/>
    </vehicle>
    <vehicle id="L2-CV-5" type="L2-CV-Left-" depart="15.50">
        <route edges="left-long-approaching preparation"/>
    </vehicle>
    <vehicle id="L2-CV-6" type="L2-CV-" depart="18.60">
        <route edges="right-approaching closed-lane remerging-lane left-exit"/>
    </vehicle>
    <vehicle id="L2-CV-8" type="L2-CV-" depart="24.80">
        <route edges="bottom-approaching right-exit"/>
    </vehicle>
    <vehicle id="L2-CV-9" type="L2-CV-" depart="27.90">
        <route edges="top-approaching closed-lane remerging-lane left-exit"/>
    </vehicle>
    <vehicle id="L2-CV-10" type="L2-CV-" depart="31.00">
        <route edges="top-approaching right-exit"/>
    </vehicle>
    <vehicle id="L2-CV-11" type="L2-CV-" depart="34.10">
        <route edges="top-approaching closed-lane remerging-lane left-exit"/>
    </vehicle>
    <vehicle id="L2-CV-12" type="L2-CV-" depart="37.20">
        <route edges="bottom-approaching top-exit"/>
    </vehicle>
    <vehicle id="L2-CV-13" type="L2-CV-" depart="40.30">
        <route edges="top-approaching closed-lane remerging-lane left-exit"/>
    </vehicle>
    <vehicle id="L2-CV-15" type="L2-CV-" depart="46.50">
        <route edges="right-approaching closed-lane remerging-lane left-exit"/>
    </vehicle>
    <vehicle id="L2-CV-16" type="L2-CV-" depart="49.60">
        <route edges="top-approaching right-exit"/>
    </vehicle>
    <vehicle id="L2-CV-17" type="L2-CV-" depart="52.70">
        <route edges="bottom-approaching right-exit"/>
    </vehicle>
    <vehicle id="L2-CV-18" type="L2-CV-Left-" depart="55.80">
        <route edges="left-long-approaching preparation"/>
    </vehicle>
    <vehicle id="L2-CV-19" type="L2-CV-" depart="58.90">
        <route edges="top-approaching right-exit"/>
    </vehicle>
    <vehicle id="L2-CV-22" type="L2-CV-" depart="68.20">
        <route edges="bottom-approaching closed-lane remerging-lane left-exit"/>
    </vehicle>
    <vehicle id="L2-CV-23" type="L2-CV-" depart="71.30">
        <route edges="right-approaching closed-lane remerging-lane left-exit"/>
    </vehicle>
    <vehicle id="L2-CV-24" type="L2-CV-" depart="74.40">
        <route edges="right-approaching bottom-exit"/>
    </vehicle>
    <vehicle id="L2-CV-25" type="L2-CV-" depart="77.50">
        <route edges="top-approaching right-exit"/>
    </vehicle>
    <vehicle id="L2-CV-26" type="L2-CV-" depart="80.60">
        <route edges="bottom-approaching right-exit"/>
    </vehicle>
    <vehicle id="L2-CV-27" type="L2-CV-Right-" depart="83.70">
        <route edges="left-long-approaching preparation left-short-approaching bottom-exit"/>
    </vehicle>
    <vehicle id="L2-CV-28" type="L2-CV-Right-" depart="86.80">
        <route edges="left-long-approaching preparation left-short-approaching bottom-exit"/>
    </vehicle>
    <vehicle id="L2-CV-29" type="L2-CV-" depart="89.90">
        <route edges="bottom-approaching top-exit"/>
    </vehicle>
    <vehicle id="L2-CV-30" type="L2-CV-" depart="93.00">
        <route edges="right-approaching bottom-exit"/>
    </vehicle>
    <vehicle id="L2-CV-31" type="L2-CV-" depart="96.10">
        <route edges="top-approaching bottom-exit"/>
    </vehicle>
    <vehicle id="L2-CV-32" type="L2-CV-Left-" depart="99.20">
        <route edges="left-long-approaching preparation"/>
    </vehicle>
    <vehicle id="L2-CV-33" type="L2-CV-" depart="102.30">
        <route edges="right-approaching closed-lane remerging-lane left-exit"/>
    </vehicle>
    <vehicle id="L2-CV-35" type="L2-CV-" depart="108.50">
        <route edges="bottom-approaching top-exit"/>
    </vehicle>
    <vehicle id="L2-CV-36" type="L2-CV-" depart="111.60">
        <route edges="bottom-approaching closed-lane remerging-lane left-exit"/>
    </vehicle>
    <vehicle id="L2-CV-37" type="L2-CV-" depart="114.70">
        <route edges="right-approaching closed-lane remerging-lane left-exit"/>
    </vehicle>
    <vehicle id="L2-CV-38" type="L2-CV-" depart="117.80">
        <route edges="top-approaching bottom-exit"/>
    </vehicle>
    <vehicle id="L2-CV-40" type="L2-CV-" depart="124.00">
        <route edges="right-approaching top-exit"/>
    </vehicle>
    <vehicle id="L2-CV-41" type="L2-CV-Left-" depart="127.10">
        <route edges="left-long-approaching preparation"/>
    </vehicle>
    <vehicle id="L2-CV-42" type="L2-CV-" depart="130.20">
        <route edges="top-approaching right-exit"/>
    </vehicle>
    <vehicle id="L2-CV-43" type="L2-CV-" depart="133.30">
        <route edges="left-long-approaching preparation left-short-approaching right-exit"/>
    </vehicle>
    <vehicle id="L2-CV-44" type="L2-CV-Right-" depart="136.40">
        <route edges="left-long-approaching preparation left-short-approaching bottom-exit"/>
    </vehicle>
    <vehicle id="L2-CV-45" type="L2-CV-" depart="139.50">
        <route edges="right-approaching closed-lane remerging-lane left-exit"/>
    </vehicle>
    <vehicle id="L2-CV-46" type="L2-CV-Left-" depart="142.60">
        <route edges="left-long-approaching preparation"/>
    </vehicle>
    <vehicle id="L2-CV-48" type="L2-CV-" depart="148.80">
        <route edges="bottom-approaching right-exit"/>
    </vehicle>
    <vehicle id="L2-CV-50" type="L2-CV-Left-" depart="155.00">
        <route edges="left-long-approaching preparation"/>
    </vehicle>
    <vehicle id="L2-CV-52" type="L2-CV-" depart="161.20">
        <route edges="top-approaching right-exit"/>
    </vehicle>
    <vehicle id="L2-CV-54" type="L2-CV-Right-" depart="167.40">
        <route edges="left-long-approaching preparation left-short-approaching bottom-exit"/>
    </vehicle>
    <vehicle id="L2-CV-56" type="L2-CV-" depart="173.60">
        <route edges="top-approaching closed-lane remerging-lane left-exit"/>
    </vehicle>
    <vehicle id="L2-CV-57" type="L2-CV-" depart="176.70">
        <route edges="right-approaching top-exit"/>
    </vehicle>
    <vehicle id="L2-CV-58" type="L2-CV-" depart="179.80">
        <route edges="top-approaching closed-lane remerging-lane left-exit"/>
    </vehicle>
    <vehicle id="L2-CV-59" type="L2-CV-" depart="182.90">
        <route edges="right-approaching closed-lane remerging-lane left-exit"/>
    </vehicle>
    <vehicle id="L2-CV-62" type="L2-CV-Right-" depart="192.20">
        <route edges="left-long-approaching preparation left-short-approaching bottom-exit"/>
    </vehicle>
    <vehicle id="L2-CV-63" type="L2-CV-Right-" depart="195.30">
        <route edges="left-long-approaching preparation left-short-approaching bottom-exit"/>
    </vehicle>
    <vehicle id="L2-CV-64" type="L2-CV-" depart="198.40">
        <route edges="bottom-approaching top-exit"/>
    </vehicle>
    <vehicle id="L2-CV-65" type="L2-CV-" depart="201.50">
        <route edges="bottom-approaching right-exit"/>
    </vehicle>
    <vehicle id="L2-CV-66" type="L2-CV-Left-" depart="204.60">
        <route edges="left-long-approaching preparation"/>
    </vehicle>
    <vehicle id="L2-CV-67" type="L2-CV-" depart="207.70">
        <route edges="top-approaching bottom-exit"/>
    </vehicle>
    <vehicle id="L2-CV-68" type="L2-CV-" depart="210.80">
        <route edges="bottom-approaching top-exit"/>
    </vehicle>
    <vehicle id="L2-CV-69" type="L2-CV-" depart="213.90">
        <route edges="right-approaching closed-lane remerging-lane left-exit"/>
    </vehicle>
    <vehicle id="L2-CV-72" type="L2-CV-" depart="223.20">
        <route edges="bottom-approaching closed-lane remerging-lane left-exit"/>
    </vehicle>
    <vehicle id="L2-CV-73" type="L2-CV-" depart="226.30">
        <route edges="bottom-approaching right-exit"/>
    </vehicle>
    <vehicle id="L2-CV-74" type="L2-CV-" depart="229.40">
        <route edges="right-approaching bottom-exit"/>
    </vehicle>
    <vehicle id="L2-CV-75" type="L2-CV-" depart="232.50">
        <route edges="right-approaching bottom-exit"/>
    </vehicle>
    <vehicle id="L2-CV-76" type="L2-CV-" depart="235.60">
        <route edges="bottom-approaching right-exit"/>
    </vehicle>
    <vehicle id="L2-CV-77" type="L2-CV-Left-" depart="238.70">
        <route edges="left-long-approaching preparation"/>
    </vehicle>
    <vehicle id="L2-CV-79" type="L2-CV-" depart="244.90">
        <route edges="bottom-approaching top-exit"/>
    </vehicle>
    <vehicle id="L2-CV-80" type="L2-CV-" depart="248.00">
        <route edges="bottom-approaching right-exit"/>
    </vehicle>
    <vehicle id="L2-CV-82" type="L2-CV-" depart="254.20">
        <route edges="top-approaching closed-lane remerging-lane left-exit"/>
    </vehicle>
    <vehicle id="L2-CV-83" type="L2-CV-" depart="257.30">
        <route edges="right-approaching top-exit"/>
    </vehicle>
    <vehicle id="L2-CV-84" type="L2-CV-" depart="260.40">
        <route edges="bottom-approaching top-exit"/>
    </vehicle>
    <vehicle id="L2-CV-85" type="L2-CV-" depart="263.50">
        <route edges="top-approaching closed-lane remerging-lane left-exit"/>
    </vehicle>
    <vehicle id="L2-CV-86" type="L2-CV-" depart="266.60">
        <route edges="top-approaching closed-lane remerging-lane left-exit"/>
    </vehicle>
    <vehicle id="L2-CV-87" type="L2-CV-" depart="269.70">
        <route edges="left-long-approaching preparation left-short-approaching right-exit"/>
    </vehicle>
    <vehicle id="L2-CV-88" type="L2-CV-" depart="272.80">
        <route edges="bottom-approaching top-exit"/>
    </vehicle>
    <vehicle id="L2-CV-89" type="L2-CV-" depart="275.90">
        <route edges="top-approaching closed-lane remerging-lane left-exit"/>
    </vehicle>
    <vehicle id="L2-CV-90" type="L2-CV-" depart="279.00">
        <route edges="top-approaching bottom-exit"/>
    </vehicle>
    <vehicle id="L2-CV-91" type="L2-CV-" depart="282.10">
        <route edges="top-approaching closed-lane remerging-lane left-exit"/>
    </vehicle>
    <vehicle id="L2-CV-92" type="L2-CV-" depart="285.20">
        <route edges="top-approaching closed-lane remerging-lane left-exit"/>
    </vehicle>
    <vehicle id="L2-CV-93" type="L2-CV-" depart="288.30">
        <route edges="top-approaching bottom-exit"/>
    </vehicle>
    <vehicle id="L2-CV-94" type="L2-CV-" depart="291.40">
        <route edges="bottom-approaching top-exit"/>
    </vehicle>
    <vehicle id="L2-CV-97" type="L2-CV-Right-" depart="300.70">
        <route edges="left-long-approaching preparation left-short-approaching bottom-exit"/>
    </vehicle>
    <vehicle id="L2-CV-99" type="L2-CV-" depart="306.90">
        <route edges="top-approaching right-exit"/>
    </vehicle>
    <vehicle id="L2-CV-100" type="L2-CV-Right-" depart="310.00">
        <route edges="left-long-approaching preparation left-short-approaching bottom-exit"/>
    </vehicle>
    <vehicle id="L2-CV-101" type="L2-CV-" depart="313.10">
        <route edges="right-approaching bottom-exit"/>
    </vehicle>
    <vehicle id="L2-CV-102" type="L2-CV-" depart="316.20">
        <route edges="right-approaching closed-lane remerging-lane left-exit"/>
    </vehicle>
    <vehicle id="L2-CV-103" type="L2-CV-Right-" depart="319.30">
        <route edges="left-long-approaching preparation left-short-approaching bottom-exit"/>
    </vehicle>
    <vehicle id="L2-CV-104" type="L2-CV-" depart="322.40">
        <route edges="bottom-approaching right-exit"/>
    </vehicle>
    <vehicle id="L2-CV-105" type="L2-CV-" depart="325.50">
        <route edges="bottom-approaching right-exit"/>
    </vehicle>
    <vehicle id="L2-CV-106" type="L2-CV-" depart="328.60">
        <route edges="bottom-approaching closed-lane remerging-lane left-exit"/>
    </vehicle>
    <vehicle id="L2-CV-107" type="L2-CV-" depart="331.70">
        <route edges="bottom-approaching right-exit"/>
    </vehicle>
    <vehicle id="L2-CV-108" type="L2-CV-Right-" depart="334.80">
        <route edges="left-long-approaching preparation left-short-approaching bottom-exit"/>
    </vehicle>
    <vehicle id="L2-CV-109" type="L2-CV-" depart="337.90">
        <route edges="bottom-approaching right-exit"/>
    </vehicle>
    <vehicle id="L2-CV-110" type="L2-CV-" depart="341.00">
        <route edges="top-approaching closed-lane remerging-lane left-exit"/>
    </vehicle>
    <vehicle id="L2-CV-111" type="L2-CV-" depart="344.10">
        <route edges="bottom-approaching closed-lane remerging-lane left-exit"/>
    </vehicle>
    <vehicle id="L2-CV-112" type="L2-CV-" depart="347.20">
        <route edges="bottom-approaching right-exit"/>
    </vehicle>
    <vehicle id="L2-CV-113" type="L2-CV-" depart="350.30">
        <route edges="top-approaching right-exit"/>
    </vehicle>
    <vehicle id="L2-CV-114" type="L2-CV-" depart="353.40">
        <route edges="bottom-approaching closed-lane remerging-lane left-exit"/>
    </vehicle>
    <vehicle id="L2-CV-116" type="L2-CV-Left-" depart="359.60">
        <route edges="left-long-approaching preparation"/>
    </vehicle>
    <vehicle id="L2-CV-119" type="L2-CV-" depart="368.90">
        <route edges="top-approaching closed-lane remerging-lane left-exit"/>
    </vehicle>
    <vehicle id="L2-CV-120" type="L2-CV-" depart="372.00">
        <route edges="right-approaching top-exit"/>
    </vehicle>
    <vehicle id="L2-CV-121" type="L2-CV-" depart="375.10">
        <route edges="bottom-approaching right-exit"/>
    </vehicle>
    <vehicle id="L2-CV-122" type="L2-CV-Right-" depart="378.20">
        <route edges="left-long-approaching preparation left-short-approaching bottom-exit"/>
    </vehicle>
    <vehicle id="L2-CV-123" type="L2-CV-" depart="381.30">
        <route edges="bottom-approaching top-exit"/>
    </vehicle>
    <vehicle id="L2-CV-124" type="L2-CV-" depart="384.40">
        <route edges="bottom-approaching right-exit"/>
    </vehicle>
    <vehicle id="L2-CV-125" type="L2-CV-" depart="387.50">
        <route edges="bottom-approaching closed-lane remerging-lane left-exit"/>
    </vehicle>
    <vehicle id="L2-CV-126" type="L2-CV-" depart="390.60">
        <route edges="bottom-approaching right-exit"/>
    </vehicle>
    <vehicle id="L2-CV-127" type="L2-CV-" depart="393.70">
        <route edges="top-approaching bottom-exit"/>
    </vehicle>
    <vehicle id="L2-CV-128" type="L2-CV-" depart="396.80">
        <route edges="right-approaching top-exit"/>
    </vehicle>
    <vehicle id="L2-CV-130" type="L2-CV-" depart="403.00">
        <route edges="right-approaching top-exit"/>
    </vehicle>
    <vehicle id="L2-CV-131" type="L2-CV-" depart="406.10">
        <route edges="bottom-approaching right-exit"/>
    </vehicle>
    <vehicle id="L2-CV-133" type="L2-CV-" depart="412.30">
        <route edges="top-approaching bottom-exit"/>
    </vehicle>
    <vehicle id="L2-CV-134" type="L2-CV-" depart="415.40">
        <route edges="top-approaching right-exit"/>
    </vehicle>
    <vehicle id="L2-CV-136" type="L2-CV-" depart="421.60">
        <route edges="right-approaching closed-lane remerging-lane left-exit"/>
    </vehicle>
    <vehicle id="L2-CV-137" type="L2-CV-Right-" depart="424.70">
        <route edges="left-long-approaching preparation left-short-approaching bottom-exit"/>
    </vehicle>
    <vehicle id="L2-CV-139" type="L2-CV-" depart="430.90">
        <route edges="top-approaching bottom-exit"/>
    </vehicle>
    <vehicle id="L2-CV-140" type="L2-CV-" depart="434.00">
        <route edges="right-approaching closed-lane remerging-lane left-exit"/>
    </vehicle>
    <vehicle id="L2-CV-141" type="L2-CV-" depart="437.10">
        <route edges="top-approaching right-exit"/>
    </vehicle>
    <vehicle id="L2-CV-142" type="L2-CV-" depart="440.20">
        <route edges="top-approaching right-exit"/>
    </vehicle>
    <vehicle id="L2-CV-143" type="L2-CV-" depart="443.30">
        <route edges="right-approaching top-exit"/>
    </vehicle>
    <vehicle id="L2-CV-144" type="L2-CV-" depart="446.40">
        <route edges="bottom-approaching right-exit"/>
    </vehicle>
    <vehicle id="L2-CV-145" type="L2-CV-" depart="449.50">
        <route edges="bottom-approaching closed-lane remerging-lane left-exit"/>
    </vehicle>
    <vehicle id="L2-CV-146" type="L2-CV-" depart="452.60">
        <route edges="bottom-approaching top-exit"/>
    </vehicle>
    <vehicle id="L2-CV-147" type="L2-CV-" depart="455.70">
        <route edges="bottom-approaching top-exit"/>
    </vehicle>
    <vehicle id="L2-CV-148" type="L2-CV-" depart="458.80">
        <route edges="top-approaching closed-lane remerging-lane left-exit"/>
    </vehicle>
    <vehicle id="L2-CV-149" type="L2-CV-" depart="461.90">
        <route edges="top-approaching bottom-exit"/>
    </vehicle>
    <vehicle id="L2-CV-152" type="L2-CV-" depart="471.20">
        <route edges="top-approaching bottom-exit"/>
    </vehicle>
    <vehicle id="L2-CV-153" type="L2-CV-" depart="474.30">
        <route edges="right-approaching closed-lane remerging-lane left-exit"/>
    </vehicle>
    <vehicle id="L2-CV-154" type="L2-CV-" depart="477.40">
        <route edges="bottom-approaching closed-lane remerging-lane left-exit"/>
    </vehicle>
    <vehicle id="L2-CV-155" type="L2-CV-" depart="480.50">
        <route edges="bottom-approaching top-exit"/>
    </vehicle>
    <vehicle id="L2-CV-156" type="L2-CV-" depart="483.60">
        <route edges="left-long-approaching preparation left-short-approaching right-exit"/>
    </vehicle>
    <vehicle id="L2-CV-159" type="L2-CV-" depart="492.90">
        <route edges="bottom-approaching top-exit"/>
    </vehicle>
    <vehicle id="L2-CV-160" type="L2-CV-" depart="496.00">
        <route edges="bottom-approaching closed-lane remerging-lane left-exit"/>
    </vehicle>
    <vehicle id="L2-CV-161" type="L2-CV-" depart="499.10">
        <route edges="top-approaching right-exit"/>
    </vehicle>
    <vehicle id="L2-CV-163" type="L2-CV-" depart="505.30">
        <route edges="right-approaching bottom-exit"/>
    </vehicle>
    <vehicle id="L2-CV-164" type="L2-CV-" depart="508.40">
        <route edges="right-approaching closed-lane remerging-lane left-exit"/>
    </vehicle>
    <vehicle id="L2-CV-165" type="L2-CV-" depart="511.50">
        <route edges="top-approaching right-exit"/>
    </vehicle>
    <vehicle id="L2-CV-166" type="L2-CV-" depart="514.60">
        <route edges="right-approaching top-exit"/>
    </vehicle>
    <vehicle id="L2-CV-167" type="L2-CV-Left-" depart="517.70">
        <route edges="left-long-approaching preparation"/>
    </vehicle>
    <vehicle id="L2-CV-168" type="L2-CV-" depart="520.80">
        <route edges="top-approaching bottom-exit"/>
    </vehicle>
    <vehicle id="L2-CV-170" type="L2-CV-" depart="527.00">
        <route edges="top-approaching closed-lane remerging-lane left-exit"/>
    </vehicle>
    <vehicle id="L2-CV-171" type="L2-CV-Right-" depart="530.10">
        <route edges="left-long-approaching preparation left-short-approaching bottom-exit"/>
    </vehicle>
    <vehicle id="L2-CV-172" type="L2-CV-Left-" depart="533.20">
        <route edges="left-long-approaching preparation"/>
    </vehicle>
    <vehicle id="L2-CV-173" type="L2-CV-Right-" depart="536.30">
        <route edges="left-long-approaching preparation left-short-approaching bottom-exit"/>
    </vehicle>
    <vehicle id="L2-CV-174" type="L2-CV-Right-" depart="539.40">
        <route edges="left-long-approaching preparation left-short-approaching bottom-exit"/>
    </vehicle>
    <vehicle id="L2-CV-175" type="L2-CV-" depart="542.50">
        <route edges="right-approaching top-exit"/>
    </vehicle>
    <vehicle id="L2-CV-176" type="L2-CV-" depart="545.60">
        <route edges="top-approaching bottom-exit"/>
    </vehicle>
    <vehicle id="L2-CV-177" type="L2-CV-Right-" depart="548.70">
        <route edges="left-long-approaching preparation left-short-approaching bottom-exit"/>
    </vehicle>
    <vehicle id="L2-CV-179" type="L2-CV-" depart="554.90">
        <route edges="right-approaching top-exit"/>
    </vehicle>
    <vehicle id="L2-CV-180" type="L2-CV-" depart="558.00">
        <route edges="right-approaching top-exit"/>
    </vehicle>
    <vehicle id="L2-CV-183" type="L2-CV-" depart="567.30">
        <route edges="right-approaching top-exit"/>
    </vehicle>
    <vehicle id="L2-CV-184" type="L2-CV-" depart="570.40">
        <route edges="right-approaching top-exit"/>
    </vehicle>
    <vehicle id="L2-CV-186" type="L2-CV-" depart="576.60">
        <route edges="bottom-approaching right-exit"/>
    </vehicle>
    <vehicle id="L2-CV-187" type="L2-CV-" depart="579.70">
        <route edges="right-approaching bottom-exit"/>
    </vehicle>
    <vehicle id="L2-CV-188" type="L2-CV-" depart="582.80">
        <route edges="right-approaching bottom-exit"/>
    </vehicle>
    <vehicle id="L2-CV-189" type="L2-CV-" depart="585.90">
        <route edges="right-approaching top-exit"/>
    </vehicle>
    <vehicle id="L2-CV-190" type="L2-CV-" depart="589.00">
        <route edges="bottom-approaching top-exit"/>
    </vehicle>
    <vehicle id="L2-CV-191" type="L2-CV-" depart="592.10">
        <route edges="right-approaching bottom-exit"/>
    </vehicle>
    <vehicle id="L2-CV-192" type="L2-CV-Right-" depart="595.20">
        <route edges="left-long-approaching preparation left-short-approaching bottom-exit"/>
    </vehicle>
    <vehicle id="L2-CV-193" type="L2-CV-" depart="598.30">
        <route edges="right-approaching top-exit"/>
    </vehicle>
    <vehicle id="L2-CV-195" type="L2-CV-" depart="604.50">
        <route edges="right-approaching top-exit"/>
    </vehicle>
    <vehicle id="L2-CV-196" type="L2-CV-" depart="607.60">
        <route edges="right-approaching closed-lane remerging-lane left-exit"/>
    </vehicle>
    <vehicle id="L2-CV-197" type="L2-CV-" depart="610.70">
        <route edges="bottom-approaching right-exit"/>
    </vehicle>
    <vehicle id="L2-CV-198" type="L2-CV-Left-" depart="613.80">
        <route edges="left-long-approaching preparation"/>
    </vehicle>
    <vehicle id="L2-CV-200" type="L2-CV-" depart="620.00">
        <route edges="top-approaching right-exit"/>
    </vehicle>
    <vehicle id="L2-CV-201" type="L2-CV-" depart="623.10">
        <route edges="top-approaching closed-lane remerging-lane left-exit"/>
    </vehicle>
    <vehicle id="L2-CV-202" type="L2-CV-" depart="626.20">
        <route edges="bottom-approaching top-exit"/>
    </vehicle>
    <vehicle id="L2-CV-203" type="L2-CV-" depart="629.30">
        <route edges="bottom-approaching top-exit"/>
    </vehicle>
    <vehicle id="L2-CV-204" type="L2-CV-Right-" depart="632.40">
        <route edges="left-long-approaching preparation left-short-approaching bottom-exit"/>
    </vehicle>
    <vehicle id="L2-CV-205" type="L2-CV-" depart="635.50">
        <route edges="left-long-approaching preparation left-short-approaching right-exit"/>
    </vehicle>
    <vehicle id="L2-CV-206" type="L2-CV-" depart="638.60">
        <route edges="left-long-approaching preparation left-short-approaching right-exit"/>
    </vehicle>
    <vehicle id="L2-CV-207" type="L2-CV-" depart="641.70">
        <route edges="bottom-approaching top-exit"/>
    </vehicle>
    <vehicle id="L2-CV-208" type="L2-CV-Left-" depart="644.80">
        <route edges="left-long-approaching preparation"/>
    </vehicle>
    <vehicle id="L2-CV-209" type="L2-CV-" depart="647.90">
        <route edges="bottom-approaching right-exit"/>
    </vehicle>
    <vehicle id="L2-CV-211" type="L2-CV-" depart="654.10">
        <route edges="bottom-approaching right-exit"/>
    </vehicle>
    <vehicle id="L2-CV-212" type="L2-CV-" depart="657.20">
        <route edges="top-approaching bottom-exit"/>
    </vehicle>
    <vehicle id="L2-CV-213" type="L2-CV-Right-" depart="660.30">
        <route edges="left-long-approaching preparation left-short-approaching bottom-exit"/>
    </vehicle>
    <vehicle id="L2-CV-215" type="L2-CV-" depart="666.50">
        <route edges="right-approaching closed-lane remerging-lane left-exit"/>
    </vehicle>
    <vehicle id="L2-CV-217" type="L2-CV-" depart="672.70">
        <route edges="right-approaching top-exit"/>
    </vehicle>
    <vehicle id="L2-CV-220" type="L2-CV-" depart="682.00">
        <route edges="right-approaching closed-lane remerging-lane left-exit"/>
    </vehicle>
    <vehicle id="L2-CV-221" type="L2-CV-" depart="685.10">
        <route edges="right-approaching top-exit"/>
    </vehicle>
    <vehicle id="L2-CV-222" type="L2-CV-Left-" depart="688.20">
        <route edges="left-long-approaching preparation"/>
    </vehicle>
    <vehicle id="L2-CV-223" type="L2-CV-" depart="691.30">
        <route edges="right-approaching bottom-exit"/>
    </vehicle>
    <vehicle id="L2-CV-225" type="L2-CV-" depart="697.50">
        <route edges="right-approaching bottom-exit"/>
    </vehicle>
    <vehicle id="L2-CV-226" type="L2-CV-" depart="700.60">
        <route edges="top-approaching closed-lane remerging-lane left-exit"/>
    </vehicle>
    <vehicle id="L2-CV-227" type="L2-CV-" depart="703.70">
        <route edges="right-approaching bottom-exit"/>
    </vehicle>
    <vehicle id="L2-CV-229" type="L2-CV-" depart="709.90">
        <route edges="bottom-approaching closed-lane remerging-lane left-exit"/>
    </vehicle>
    <vehicle id="L2-CV-232" type="L2-CV-" depart="719.20">
        <route edges="top-approaching bottom-exit"/>
    </vehicle>
    <vehicle id="L2-CV-234" type="L2-CV-" depart="725.40">
        <route edges="bottom-approaching top-exit"/>
    </vehicle>
    <vehicle id="L2-CV-235" type="L2-CV-Right-" depart="728.50">
        <route edges="left-long-approaching preparation left-short-approaching bottom-exit"/>
    </vehicle>
    <vehicle id="L2-CV-236" type="L2-CV-" depart="731.60">
        <route edges="bottom-approaching top-exit"/>
    </vehicle>
    <vehicle id="L2-CV-237" type="L2-CV-" depart="734.70">
        <route edges="bottom-approaching closed-lane remerging-lane left-exit"/>
    </vehicle>
    <vehicle id="L2-CV-238" type="L2-CV-" depart="737.80">
        <route edges="right-approaching closed-lane remerging-lane left-exit"/>
    </vehicle>
    <vehicle id="L2-CV-239" type="L2-CV-" depart="740.90">
        <route edges="right-approaching bottom-exit"/>
    </vehicle>
    <vehicle id="L2-CV-240" type="L2-CV-" depart="744.00">
        <route edges="left-long-approaching preparation left-short-approaching right-exit"/>
    </vehicle>
    <vehicle id="L2-CV-242" type="L2-CV-" depart="750.20">
        <route edges="left-long-approaching preparation left-short-approaching right-exit"/>
    </vehicle>
    <vehicle id="L2-CV-243" type="L2-CV-" depart="753.30">
        <route edges="top-approaching closed-lane remerging-lane left-exit"/>
    </vehicle>
    <vehicle id="L2-CV-244" type="L2-CV-" depart="756.40">
        <route edges="right-approaching top-exit"/>
    </vehicle>
    <vehicle id="L2-CV-246" type="L2-CV-" depart="762.60">
        <route edges="top-approaching closed-lane remerging-lane left-exit"/>
    </vehicle>
    <vehicle id="L2-CV-248" type="L2-CV-" depart="768.80">
        <route edges="top-approaching right-exit"/>
    </vehicle>
    <vehicle id="L2-CV-249" type="L2-CV-" depart="771.90">
        <route edges="top-approaching bottom-exit"/>
    </vehicle>
    <vehicle id="L2-CV-250" type="L2-CV-" depart="775.00">
        <route edges="left-long-approaching preparation left-short-approaching right-exit"/>
    </vehicle>
    <vehicle id="L2-CV-251" type="L2-CV-" depart="778.10">
        <route edges="left-long-approaching preparation left-short-approaching right-exit"/>
    </vehicle>
    <vehicle id="L2-CV-252" type="L2-CV-" depart="781.20">
        <route edges="right-approaching bottom-exit"/>
    </vehicle>
    <vehicle id="L2-CV-253" type="L2-CV-" depart="784.30">
        <route edges="bottom-approaching closed-lane remerging-lane left-exit"/>
    </vehicle>
    <vehicle id="L2-CV-254" type="L2-CV-" depart="787.40">
        <route edges="right-approaching bottom-exit"/>
    </vehicle>
    <vehicle id="L2-CV-255" type="L2-CV-Right-" depart="790.50">
        <route edges="left-long-approaching preparation left-short-approaching bottom-exit"/>
    </vehicle>
    <vehicle id="L2-CV-257" type="L2-CV-" depart="796.70">
        <route edges="left-long-approaching preparation left-short-approaching right-exit"/>
    </vehicle>
    <vehicle id="L2-CV-258" type="L2-CV-" depart="799.80">
        <route edges="top-approaching right-exit"/>
    </vehicle>
    <vehicle id="L2-CV-259" type="L2-CV-" depart="802.90">
        <route edges="right-approaching closed-lane remerging-lane left-exit"/>
    </vehicle>
    <vehicle id="L2-CV-260" type="L2-CV-" depart="806.00">
        <route edges="left-long-approaching preparation left-short-approaching right-exit"/>