<?xml version="1.0" ?><!-- generated on 04/05/21 19:36:35 by Eclipse SUMO duarouter Version 1.8.0
<configuration xmlns:xsi="http://www.w3.org/2001/XMLSchema-instance" xsi:noNamespaceSchemaLocation="http://sumo.dlr.de/xsd/duarouterConfiguration.xsd">

    <input>
        <net-file value="Roadworks/RoadworksIntersection.net.xml"/>
        <route-files value="trips.trips.xml"/>
    </input>

    <output>
        <output-file value="Roadworks/BaselinePenetration3/Route-Files/L4-AV-Route.rou.xml"/>
        <alternatives-output value="Roadworks/BaselinePenetration3/Route-Files/L4-AV-Route.rou.alt.xml"/>
    </output>

    <time>
        <begin value="0"/>
        <end value="3600"/>
    </time>

    <report>
        <no-warnings value="true"/>
        <ignore-errors value="true"/>
        <no-step-log value="true"/>
    </report>

</configuration>
--><routes xmlns:xsi="http://www.w3.org/2001/XMLSchema-instance" xsi:noNamespaceSchemaLocation="http://sumo.dlr.de/xsd/routes_file.xsd">
    <vehicle id="L4-AV-2" type="L4-AV-" depart="14.00">
        <route edges="top-approaching right-exit"/>
    </vehicle>
    <vehicle id="L4-AV-3" type="L4-AV-" depart="21.00">
        <route edges="right-approaching closed-lane remerging-lane left-exit"/>
    </vehicle>
    <vehicle id="L4-AV-5" type="L4-AV-" depart="35.00">
        <route edges="right-approaching bottom-exit"/>
    </vehicle>
    <vehicle id="L4-AV-7" type="L4-AV-" depart="49.00">
        <route edges="right-approaching top-exit"/>
    </vehicle>
    <vehicle id="L4-AV-8" type="L4-AV-" depart="56.00">
        <route edges="top-approaching right-exit"/>
    </vehicle>
    <vehicle id="L4-AV-12" type="L4-AV-Left-" depart="84.00">
        <route edges="left-long-approaching preparation"/>
    </vehicle>
    <vehicle id="L4-AV-15" type="L4-AV-Right-" depart="105.00">
        <route edges="left-long-approaching preparation left-short-approaching bottom-exit"/>
    </vehicle>
    <vehicle id="L4-AV-16" type="L4-AV-" depart="112.00">
        <route edges="right-approaching top-exit"/>
    </vehicle>
    <vehicle id="L4-AV-17" type="L4-AV-" depart="119.00">
        <route edges="right-approaching bottom-exit"/>
    </vehicle>
    <vehicle id="L4-AV-19" type="L4-AV-" depart="133.00">
        <route edges="right-approaching top-exit"/>
    </vehicle>
    <vehicle id="L4-AV-21" type="L4-AV-Left-" depart="147.00">
        <route edges="left-long-approaching preparation"/>
    </vehicle>
    <vehicle id="L4-AV-22" type="L4-AV-" depart="154.00">
        <route edges="top-approaching bottom-exit"/>
    </vehicle>
    <vehicle id="L4-AV-23" type="L4-AV-" depart="161.00">
        <route edges="top-approaching right-exit"/>
    </vehicle>
    <vehicle id="L4-AV-24" type="L4-AV-" depart="168.00">
        <route edges="left-long-approaching preparation left-short-approaching right-exit"/>
    </vehicle>
    <vehicle id="L4-AV-25" type="L4-AV-Left-" depart="175.00">
        <route edges="left-long-approaching preparation"/>
    </vehicle>
    <vehicle id="L4-AV-26" type="L4-AV-Left-" depart="182.00">
        <route edges="left-long-approaching preparation"/>
    </vehicle>
    <vehicle id="L4-AV-27" type="L4-AV-Left-" depart="189.00">
        <route edges="left-long-approaching preparation"/>
    </vehicle>
    <vehicle id="L4-AV-28" type="L4-AV-" depart="196.00">
        <route edges="top-approaching closed-lane remerging-lane left-exit"/>
    </vehicle>
    <vehicle id="L4-AV-29" type="L4-AV-" depart="203.00">
        <route edges="right-approaching top-exit"/>
    </vehicle>
    <vehicle id="L4-AV-30" type="L4-AV-" depart="210.00">
        <route edges="right-approaching closed-lane remerging-lane left-exit"/>
    </vehicle>
    <vehicle id="L4-AV-31" type="L4-AV-" depart="217.00">
        <route edges="bottom-approaching closed-lane remerging-lane left-exit"/>
    </vehicle>
    <vehicle id="L4-AV-32" type="L4-AV-" depart="224.00">
        <route edges="right-approaching bottom-exit"/>
    </vehicle>
    <vehicle id="L4-AV-33" type="L4-AV-" depart="231.00">
        <route edges="top-approaching closed-lane remerging-lane left-exit"/>
    </vehicle>
    <vehicle id="L4-AV-34" type="L4-AV-" depart="238.00">
        <route edges="top-approaching closed-lane remerging-lane left-exit"/>
    </vehicle>
    <vehicle id="L4-AV-35" type="L4-AV-" depart="245.00">
        <route edges="top-approaching right-exit"/>
    </vehicle>
    <vehicle id="L4-AV-38" type="L4-AV-Right-" depart="266.00">
        <route edges="left-long-approaching preparation left-short-approaching bottom-exit"/>
    </vehicle>
    <vehicle id="L4-AV-39" type="L4-AV-" depart="273.00">
        <route edges="right-approaching top-exit"/>
    </vehicle>
    <vehicle id="L4-AV-40" type="L4-AV-" depart="280.00">
        <route edges="right-approaching bottom-exit"/>
    </vehicle>
    <vehicle id="L4-AV-41" type="L4-AV-" depart="287.00">
        <route edges="top-approaching right-exit"/>
    </vehicle>
    <vehicle id="L4-AV-42" type="L4-AV-" depart="294.00">
        <route edges="top-approaching bottom-exit"/>
    </vehicle>
    <vehicle id="L4-AV-43" type="L4-AV-" depart="301.00">
        <route edges="right-approaching bottom-exit"/>
    </vehicle>
    <vehicle id="L4-AV-44" type="L4-AV-" depart="308.00">
        <route edges="right-approaching closed-lane remerging-lane left-exit"/>
    </vehicle>
    <vehicle id="L4-AV-45" type="L4-AV-" depart="315.00">
        <route edges="bottom-approaching top-exit"/>
    </vehicle>
    <vehicle id="L4-AV-46" type="L4-AV-" depart="322.00">
        <route edges="bottom-approaching right-exit"/>
    </vehicle>
    <vehicle id="L4-AV-47" type="L4-AV-" depart="329.00">
        <route edges="top-approaching bottom-exit"/>
    </vehicle>
    <vehicle id="L4-AV-48" type="L4-AV-" depart="336.00">
        <route edges="bottom-approaching top-exit"/>
    </vehicle>
    <vehicle id="L4-AV-49" type="L4-AV-" depart="343.00">
        <route edges="left-long-approaching preparation left-short-approaching right-exit"/>
    </vehicle>
    <vehicle id="L4-AV-50" type="L4-AV-" depart="350.00">
        <route edges="bottom-approaching closed-lane remerging-lane left-exit"/>
    </vehicle>
    <vehicle id="L4-AV-51" type="L4-AV-" depart="357.00">
        <route edges="bottom-approaching right-exit"/>
    </vehicle>
    <vehicle id="L4-AV-52" type="L4-AV-" depart="364.00">
        <route edges="bottom-approaching top-exit"/>
    </vehicle>
    <vehicle id="L4-AV-53" type="L4-AV-" depart="371.00">
        <route edges="bottom-approaching right-exit"/>
    </vehicle>
    <vehicle id="L4-AV-54" type="L4-AV-" depart="378.00">
        <route edges="bottom-approaching closed-lane remerging-lane left-exit"/>
    </vehicle>
    <vehicle id="L4-AV-55" type="L4-AV-" depart="385.00">
        <route edges="top-approaching bottom-exit"/>
    </vehicle>
    <vehicle id="L4-AV-56" type="L4-AV-" depart="392.00">
        <route edges="bottom-approaching right-exit"/>
    </vehicle>
    <vehicle id="L4-AV-57" type="L4-AV-Right-" depart="399.00">
        <route edges="left-long-approaching preparation left-short-approaching bottom-exit"/>
    </vehicle>
    <vehicle id="L4-AV-58" type="L4-AV-" depart="406.00">
        <route edges="top-approaching bottom-exit"/>
    </vehicle>
    <vehicle id="L4-AV-59" type="L4-AV-" depart="413.00">
        <route edges="bottom-approaching closed-lane remerging-lane left-exit"/>
    </vehicle>
    <vehicle id="L4-AV-61" type="L4-AV-" depart="427.00">
        <route edges="bottom-approaching closed-lane remerging-lane left-exit"/>
    </vehicle>
    <vehicle id="L4-AV-62" type="L4-AV-" depart="434.00">
        <route edges="bottom-approaching closed-lane remerging-lane left-exit"/>
    </vehicle>
    <vehicle id="L4-AV-63" type="L4-AV-" depart="441.00">
        <route edges="top-approaching right-exit"/>
    </vehicle>
    <vehicle id="L4-AV-65" type="L4-AV-" depart="455.00">
        <route edges="top-approaching right-exit"/>
    </vehicle>
    <vehicle id="L4-AV-66" type="L4-AV-Right-" depart="462.00">
        <route edges="left-long-approaching preparation left-short-approaching bottom-exit"/>
    </vehicle>
    <vehicle id="L4-AV-67" type="L4-AV-" depart="469.00">
        <route edges="right-approaching closed-lane remerging-lane left-exit"/>
    </vehicle>
    <vehicle id="L4-AV-68" type="L4-AV-" depart="476.00">
        <route edges="bottom-approaching closed-lane remerging-lane left-exit"/>
    </vehicle>
    <vehicle id="L4-AV-69" type="L4-AV-" depart="483.00">
        <route edges="top-approaching bottom-exit"/>
    </vehicle>
    <vehicle id="L4-AV-70" type="L4-AV-" depart="490.00">
        <route edges="right-approaching closed-lane remerging-lane left-exit"/>
    </vehicle>
    <vehicle id="L4-AV-71" type="L4-AV-" depart="497.00">
        <route edges="right-approaching bottom-exit"/>
    </vehicle>
    <vehicle id="L4-AV-72" type="L4-AV-" depart="504.00">
        <route edges="top-approaching closed-lane remerging-lane left-exit"/>
    </vehicle>
    <vehicle id="L4-AV-73" type="L4-AV-" depart="511.00">
        <route edges="right-approaching closed-lane remerging-lane left-exit"/>
    </vehicle>
    <vehicle id="L4-AV-74" type="L4-AV-" depart="518.00">
        <route edges="bottom-approaching right-exit"/>
    </vehicle>
    <vehicle id="L4-AV-77" type="L4-AV-" depart="539.00">
        <route edges="bottom-approaching right-exit"/>
    </vehicle>
    <vehicle id="L4-AV-78" type="L4-AV-" depart="546.00">
        <route edges="right-approaching top-exit"/>
    </vehicle>
    <vehicle id="L4-AV-80" type="L4-AV-" depart="560.00">
        <route edges="bottom-approaching closed-lane remerging-lane left-exit"/>
    </vehicle>
    <vehicle id="L4-AV-81" type="L4-AV-" depart="567.00">
        <route edges="left-long-approaching preparation left-short-approaching right-exit"/>
    </vehicle>
    <vehicle id="L4-AV-82" type="L4-AV-" depart="574.00">
        <route edges="right-approaching top-exit"/>
    </vehicle>
    <vehicle id="L4-AV-83" type="L4-AV-" depart="581.00">
        <route edges="right-approaching closed-lane remerging-lane left-exit"/>
    </vehicle>
    <vehicle id="L4-AV-84" type="L4-AV-" depart="588.00">
        <route edges="left-long-approaching preparation left-short-approaching right-exit"/>
    </vehicle>
    <vehicle id="L4-AV-86" type="L4-AV-Right-" depart="602.00">
        <route edges="left-long-approaching preparation left-short-approaching bottom-exit"/>
    </vehicle>
    <vehicle id="L4-AV-87" type="L4-AV-" depart="609.00">
        <route edges="right-approaching bottom-exit"/>
    </vehicle>
    <vehicle id="L4-AV-90" type="L4-AV-" depart="630.00">
        <route edges="right-approaching closed-lane remerging-lane left-exit"/>
    </vehicle>
    <vehicle id="L4-AV-91" type="L4-AV-" depart="637.00">
        <route edges="left-long-approaching preparation left-short-approaching right-exit"/>
    </vehicle>
    <vehicle id="L4-AV-92" type="L4-AV-" depart="644.00">
        <route edges="bottom-approaching top-exit"/>
    </vehicle>
    <vehicle id="L4-AV-93" type="L4-AV-" depart="651.00">
        <route edges="top-approaching right-exit"/>
    </vehicle>
    <vehicle id="L4-AV-94" type="L4-AV-" depart="658.00">
        <route edges="left-long-approaching preparation left-short-approaching right-exit"/>
    </vehicle>
    <vehicle id="L4-AV-95" type="L4-AV-" depart="665.00">
        <route edges="right-approaching bottom-exit"/>
    </vehicle>
    <vehicle id="L4-AV-96" type="L4-AV-" depart="672.00">
        <route edges="left-long-approaching preparation left-short-approaching right-exit"/>
    </vehicle>
    <vehicle id="L4-AV-98" type="L4-AV-" depart="686.00">
        <route edges="top-approaching closed-lane remerging-lane left-exit"/>
    </vehicle>
    <vehicle id="L4-AV-99" type="L4-AV-" depart="693.00">
        <route edges="right-approaching top-exit"/>
    </vehicle>
    <vehicle id="L4-AV-100" type="L4-AV-" depart="700.00">
        <route edges="right-approaching closed-lane remerging-lane left-exit"/>
    </vehicle>
    <vehicle id="L4-AV-101" type="L4-AV-" depart="707.00">
        <route edges="top-approaching closed-lane remerging-lane left-exit"/>
    </vehicle>
    <vehicle id="L4-AV-102" type="L4-AV-" depart="714.00">
        <route edges="bottom-approaching right-exit"/>
    </vehicle>
    <vehicle id="L4-AV-103" type="L4-AV-" depart="721.00">
        <route edges="bottom-approaching closed-lane remerging-lane left-exit"/>
    </vehicle>
    <vehicle id="L4-AV-104" type="L4-AV-" depart="728.00">
        <route edges="top-approaching right-exit"/>
    </vehicle>
    <vehicle id="L4-AV-105" type="L4-AV-" depart="735.00">
        <route edges="bottom-approaching closed-lane remerging-lane left-exit"/>
    </vehicle>
    <vehicle id="L4-AV-107" type="L4-AV-" depart="749.00">
        <route edges="bottom-approaching right-exit"/>
    </vehicle>
    <vehicle id="L4-AV-108" type="L4-AV-" depart="756.00">
        <route edges="bottom-approaching closed-lane remerging-lane left-exit"/>
    </vehicle>
    <vehicle id="L4-AV-109" type="L4-AV-Left-" depart="763.00">
        <route edges="left-long-approaching preparation"/>
    </vehicle>
    <vehicle id="L4-AV-110" type="L4-AV-" depart="770.00">
        <route edges="bottom-approaching top-exit"/>
    </vehicle>
    <vehicle id="L4-AV-111" type="L4-AV-" depart="777.00">
        <route edges="bottom-approaching right-exit"/>
    </vehicle>
    <vehicle id="L4-AV-113" type="L4-AV-" depart="791.00">
        <route edges="top-approaching closed-lane remerging-lane left-exit"/>
    </vehicle>
    <vehicle id="L4-AV-115" type="L4-AV-" depart="805.00">
        <route edges="bottom-approaching top-exit"/>
    </vehicle>
    <vehicle id="L4-AV-116" type="L4-AV-" depart="812.00">
        <route edges="right-approaching top-exit"/>
    </vehicle>
    <vehicle id="L4-AV-117" type="L4-AV-" depart="819.00">
        <route edges="right-approaching bottom-exit"/>
    </vehicle>
    <vehicle id="L4-AV-118" type="L4-AV-" depart="826.00">
        <route edges="right-approaching top-exit"/>
    </vehicle>
    <vehicle id="L4-AV-121" type="L4-AV-" depart="847.00">
        <route edges="top-approaching closed-lane remerging-lane left-exit"/>
    </vehicle>
    <vehicle id="L4-AV-122" type="L4-AV-" depart="854.00">
        <route edges="right-approaching closed-lane remerging-lane left-exit"/>
    </vehicle>
    <vehicle id="L4-AV-125" type="L4-AV-Right-" depart="875.00">
        <route edges="left-long-approaching preparation left-short-approaching bottom-exit"/>
    </vehicle>
    <vehicle id="L4-AV-127" type="L4-AV-" depart="889.00">
        <route edges="left-long-approaching preparation left-short-approaching right-exit"/>
    </vehicle>
    <vehicle id="L4-AV-128" type="L4-AV-" depart="896.00">
        <route edges="top-approaching right-exit"/>
    </vehicle>
    <vehicle id="L4-AV-129" type="L4-AV-" depart="903.00">
        <route edges="top-approaching bottom-exit"/>
    </vehicle>
    <vehicle id="L4-AV-130" type="L4-AV-Left-" depart="910.00">
        <route edges="left-long-approaching preparation"/>
    </vehicle>
    <vehicle id="L4-AV-131" type="L4-AV-" depart="917.00">
        <route edges="bottom-approaching closed-lane remerging-lane left-exit"/>
    </vehicle>
    <vehicle id="L4-AV-134" type="L4-AV-" depart="938.00">
        <route edges="right-approaching bottom-exit"/>
    </vehicle>
    <vehicle id="L4-AV-135" type="L4-AV-Right-" depart="945.00">
        <route edges="left-long-approaching preparation left-short-approaching bottom-exit"/>
    </vehicle>
    <vehicle id="L4-AV-137" type="L4-AV-" depart="959.00">
        <route edges="left-long-approaching preparation left-short-approaching right-exit"/>
    </vehicle>
    <vehicle id="L4-AV-138" type="L4-AV-" depart="966.00">
        <route edges="bottom-approaching right-exit"/>
    </vehicle>
    <vehicle id="L4-AV-140" type="L4-AV-" depart="980.00">
        <route edges="bottom-approaching right-exit"/>
    </vehicle>
    <vehicle id="L4-AV-141" type="L4-AV-" depart="987.00">
        <route edges="right-approaching closed-lane remerging-lane left-exit"/>
    </vehicle>
    <vehicle id="L4-AV-142" type="L4-AV-" depart="994.00">
        <route edges="top-approaching closed-lane remerging-lane left-exit"/>
    </vehicle>
    <vehicle id="L4-AV-143" type="L4-AV-" depart="1001.00">
        <route edges="right-approaching closed-lane remerging-lane left-exit"/>
    </vehicle>
    <vehicle id="L4-AV-145" type="L4-AV-" depart="1015.00">
        <route edges="right-approaching bottom-exit"/>
    </vehicle>
    <vehicle id="L4-AV-146" type="L4-AV-Right-" depart="1022.00">
        <route edges="left-long-approaching preparation left-short-approaching bottom-exit"/>
    </vehicle>
    <vehicle id="L4-AV-147" type="L4-AV-" depart="1029.00">
        <route edges="right-approaching top-exit"/>
    </vehicle>
    <vehicle id="L4-AV-148" type="L4-AV-" depart="1036.00">
        <route edges="bottom-approaching right-exit"/>
    </vehicle>
    <vehicle id="L4-AV-150" type="L4-AV-" depart="1050.00">
        <route edges="right-approaching top-exit"/>
    </vehicle>
    <vehicle id="L4-AV-151" type="L4-AV-" depart="1057.00">
        <route edges="right-approaching closed-lane remerging-lane left-exit"/>
    </vehicle>
    <vehicle id="L4-AV-152" type="L4-AV-" depart="1064.00">
        <route edges="top-approaching closed-lane remerging-lane left-exit"/>
    </vehicle>
    <vehicle id="L4-AV-155" type="L4-AV-" depart="1085.00">
        <route edges="bottom-approaching right-exit"/>
    </vehicle>
    <vehicle id="L4-AV-156" type="L4-AV-" depart="1092.00">
        <route edges="left-long-approaching preparation left-short-approaching right-exit"/>
    </vehicle>
    <vehicle id="L4-AV-157" type="L4-AV-" depart="1099.00">
        <route edges="top-approaching right-exit"/>
    </vehicle>
    <vehicle id="L4-AV-158" type="L4-AV-" depart="1106.00">
        <route edges="bottom-approaching closed-lane remerging-lane left-exit"/>
    </vehicle>
    <vehicle id="L4-AV-159" type="L4-AV-" depart="1113.00">
        <route edges="right-approaching top-exit"/>
    </vehicle>
    <vehicle id="L4-AV-160" type="L4-AV-" depart="1120.00">
        <route edges="right-approaching top-exit"/>
    </vehicle>
    <vehicle id="L4-AV-161" type="L4-AV-" depart="1127.00">
        <route edges="bottom-approaching top-exit"/>
    </vehicle>
    <vehicle id="L4-AV-164" type="L4-AV-" depart="1148.00">
        <route edges="bottom-approaching top-exit"/>
    </vehicle>
    <vehicle id="L4-AV-165" type="L4-AV-" depart="1155.00">
        <route edges="top-approaching bottom-exit"/>
    </vehicle>
    <vehicle id="L4-AV-167" type="L4-AV-" depart="1169.00">
        <route edges="bottom-approaching top-exit"/>
    </vehicle>
    <vehicle id="L4-AV-168" type="L4-AV-" depart="1176.00">
        <route edges="bottom-approaching right-exit"/>
    </vehicle>
    <vehicle id="L4-AV-170" type="L4-AV-" depart="1190.00">
        <route edges="right-approaching closed-lane remerging-lane left-exit"/>
    </vehicle>
    <vehicle id="L4-AV-171" type="L4-AV-" depart="1197.00">
        <route edges="bottom-approaching top-exit"/>
    </vehicle>
    <vehicle id="L4-AV-173" type="L4-AV-Left-" depart="1211.00">
        <route edges="left-long-approaching preparation"/>
    </vehicle>
    <vehicle id="L4-AV-174" type="L4-AV-" depart="1218.00">
        <route edges="right-approaching top-exit"/>
    </vehicle>
    <vehicle id="L4-AV-175" type="L4-AV-" depart="1225.00">
        <route edges="left-long-approaching preparation left-short-approaching right-exit"/>
    </vehicle>
    <vehicle id="L4-AV-177" type="L4-AV-Right-" depart="1239.00">
        <route edges="left-long-approaching preparation left-short-approaching bottom-exit"/>
    </vehicle>
    <vehicle id="L4-AV-178" type="L4-AV-" depart="1246.00">
        <route edges="bottom-approaching top-exit"/>
    </vehicle>
    <vehicle id="L4-AV-179" type="L4-AV-" depart="1253.00">
        <route edges="bottom-approaching right-exit"/>
    </vehicle>
    <vehicle id="L4-AV-180" type="L4-AV-" depart="1260.00">
        <route edges="top-approaching closed-lane remerging-lane left-exit"/>
    </vehicle>
    <vehicle id="L4-AV-181" type="L4-AV-" depart="1267.00">
        <route edges="right-approaching top-exit"/>
    </vehicle>
    <vehicle id="L4-AV-182" type="L4-AV-" depart="1274.00">
        <route edges="top-approaching bottom-exit"/>
    </vehicle>
    <vehicle id="L4-AV-183" type="L4-AV-" depart="1281.00">
        <route edges="bottom-approaching closed-lane remerging-lane left-exit"/>
    </vehicle>
    <vehicle id="L4-AV-185" type="L4-AV-" depart="1295.00">
        <route edges="bottom-approaching right-exit"/>
    </vehicle>
    <vehicle id="L4-AV-186" type="L4-AV-" depart="1302.00">
        <route edges="top-approaching closed-lane remerging-lane left-exit"/>
    </vehicle>
    <vehicle id="L4-AV-187" type="L4-AV-" depart="1309.00">
        <route edges="right-approaching closed-lane remerging-lane left-exit"/>
    </vehicle>
    <vehicle id="L4-AV-188" type="L4-AV-Left-" depart="1316.00">
        <route edges="left-long-approaching preparation"/>
    </vehicle>
    <vehicle id="L4-AV-189" type="L4-AV-" depart="1323.00">
        <route edges="left-long-approaching preparation left-short-approaching right-exit"/>
    </vehicle>
    <vehicle id="L4-AV-190" type="L4-AV-" depart="1330.00">
        <route edges="left-long-approaching preparation left-short-approaching right-exit"/>
    </vehicle>
    <vehicle id="L4-AV-191" type="L4-AV-" depart="1337.00">
        <route edges="top-approaching bottom-exit"/>
    </vehicle>
    <vehicle id="L4-AV-192" type="L4-AV-" depart="1344.00">
        <route edges="top-approaching closed-lane remerging-lane left-exit"/>
    </vehicle>
    <vehicle id="L4-AV-193" type="L4-AV-" depart="1351.00">
        <route edges="right-approaching top-exit"/>
    </vehicle>
    <vehicle id="L4-AV-194" type="L4-AV-" depart="1358.00">
        <route edges="right-approaching closed-lane remerging-lane left-exit"/>
    </vehicle>
    <vehicle id="L4-AV-195" type="L4-AV-" depart="1365.00">
        <route edges="top-approaching bottom-exit"/>
    </vehicle>
    <vehicle id="L4-AV-196" type="L4-AV-" depart="1372.00">
        <route edges="right-approaching closed-lane remerging-lane left-exit"/>
    </vehicle>
    <vehicle id="L4-AV-197" type="L4-AV-" depart="1379.00">
        <route edges="right-approaching top-exit"/>
    </vehicle>
    <vehicle id="L4-AV-198" type="L4-AV-" depart="1386.00">
        <route edges="top-approaching right-exit"/>
    </vehicle>
    <vehicle id="L4-AV-199" type="L4-AV-Right-" depart="1393.00">
        <route edges="left-long-approaching preparation left-short-approaching bottom-exit"/>
    </vehicle>
    <vehicle id="L4-AV-200" type="L4-AV-Right-" depart="1400.00">
        <route edges="left-long-approaching preparation left-short-approaching bottom-exit"/>
    </vehicle>
    <vehicle id="L4-AV-201" type="L4-AV-Left-" depart="1407.00">
        <route edges="left-long-approaching preparation"/>
    </vehicle>
    <vehicle id="L4-AV-202" type="L4-AV-" depart="1414.00">
        <route edges="bottom-approaching top-exit"/>
    </vehicle>
    <vehicle id="L4-AV-204" type="L4-AV-Right-" depart="1428.00">
        <route edges="left-long-approaching preparation left-short-approaching bottom-exit"/>
    </vehicle>
    <vehicle id="L4-AV-205" type="L4-AV-Right-" depart="1435.00">
        <route edges="left-long-approaching preparation left-short-approaching bottom-exit"/>
    </vehicle>
    <vehicle id="L4-AV-208" type="L4-AV-" depart="1456.00">
        <route edges="left-long-approaching preparation left-short-approaching right-exit"/>
    </vehicle>
    <vehicle id="L4-AV-209" type="L4-AV-" depart="1463.00">
        <route edges="top-approaching closed-lane remerging-lane left-exit"/>
    </vehicle>
    <vehicle id="L4-AV-211" type="L4-AV-" depart="1477.00">
        <route edges="bottom-approaching right-exit"/>
    </vehicle>
    <vehicle id="L4-AV-213" type="L4-AV-" depart="1491.00">
        <route edges="top-approaching bottom-exit"/>
    </vehicle>
    <vehicle id="L4-AV-214" type="L4-AV-" depart="1498.00">
        <route edges="top-approaching right-exit"/>
    </vehicle>
    <vehicle id="L4-AV-215" type="L4-AV-Left-" depart="1505.00">
        <route edges="left-long-approaching preparation"/>
    </vehicle>
    <vehicle id="L4-AV-216" type="L4-AV-Left-" depart="1512.00">
        <route edges="left-long-approaching preparation"/>
    </vehicle>
    <vehicle id="L4-AV-218" type="L4-AV-" depart="1526.00">
        <route edges="right-approaching top-exit"/>
    </vehicle>
    <vehicle id="L4-AV-222" type="L4-AV-" depart="1554.00">
        <route edges="left-long-approaching preparation left-short-approaching right-exit"/>
    </vehicle>
    <vehicle id="L4-AV-223" type="L4-AV-" depart="1561.00">
        <route edges="right-approaching closed-lane remerging-lane left-exit"/>
    </vehicle>
    <vehicle id="L4-AV-224" type="L4-AV-Right-" depart="1568.00">
        <route edges="left-long-approaching preparation left-short-approaching bottom-exit"/>
    </vehicle>
    <vehicle id="L4-AV-225" type="L4-AV-" depart="1575.00">
        <route edges="top-approaching closed-lane remerging-lane left-exit"/>
    </vehicle>
    <vehicle id="L4-AV-226" type="L4-AV-Left-" depart="1582.00">
        <route edges="left-long-approaching preparation"/>
    </vehicle>
    <vehicle id="L4-AV-227" type="L4-AV-" depart="1589.00">
        <route edges="bottom-approaching top-exit"/>
    </vehicle>
    <vehicle id="L4-AV-231" type="L4-AV-" depart="1617.00">
        <route edges="top-approaching closed-lane remerging-lane left-exit"/>
    </vehicle>
    <vehicle id="L4-AV-232" type="L4-AV-" depart="1624.00">
        <route edges="right-approaching bottom-exit"/>
    </vehicle>
    <vehicle id="L4-AV-233" type="L4-AV-" depart="1631.00">
        <route edges="top-approaching closed-lane remerging-lane left-exit"/>
    </vehicle>
    <vehicle id="L4-AV-234" type="L4-AV-" depart="1638.00">
        <route edges="left-long-approaching preparation left-short-approaching right-exit"/>
    </vehicle>
    <vehicle id="L4-AV-235" type="L4-AV-" depart="1645.00">
        <route edges="bottom-approaching closed-lane remerging-lane left-exit"/>
    </vehicle>
    <vehicle id="L4-AV-236" type="L4-AV-" depart="1652.00">
        <route edges="top-approaching bottom-exit"/>
    </vehicle>
    <vehicle id="L4-AV-241" type="L4-AV-" depart="1687.00">
        <route edges="right-approaching closed-lane remerging-lane left-exit"/>
    </vehicle>
    <vehicle id="L4-AV-242" type="L4-AV-Left-" depart="1694.00">
        <route edges="left-long-approaching preparation"/>
    </vehicle>
    <vehicle id="L4-AV-244" type="L4-AV-" depart="1708.00">
        <route edges="top-approaching closed-lane remerging-lane left-exit"/>
    </vehicle>
    <vehicle id="L4-AV-245" type="L4-AV-" depart="1715.00">
        <route edges="top-approaching bottom-exit"/>
    </vehicle>
    <vehicle id="L4-AV-246" type="L4-AV-" depart="1722.00">
        <route edges="right-approaching top-exit"/>
    </vehicle>
    <vehicle id="L4-AV-247" type="L4-AV-Left-" depart="1729.00">
        <route edges="left-long-approaching preparation"/>
    </vehicle>
    <vehicle id="L4-AV-248" type="L4-AV-" depart="1736.00">
        <route edges="right-approaching closed-lane remerging-lane left-exit"/>
    </vehicle>
    <vehicle id="L4-AV-249" type="L4-AV-" depart="1743.00">
        <route edges="top-approaching closed-lane remerging-lane left-exit"/>
    </vehicle>
    <vehicle id="L4-AV-250" type="L4-AV-" depart="1750.00">
        <route edges="left-long-approaching preparation left-short-approaching right-exit"/>
    </vehicle>
    <vehicle id="L4-AV-251" type="L4-AV-Left-" depart="1757.00">
        <route edges="left-long-approaching preparation"/>
    </vehicle>
    <vehicle id="L4-AV-253" type="L4-AV-" depart="1771.00">
        <route edges="right-approaching top-exit"/>
    </vehicle>
    <vehicle id="L4-AV-256" type="L4-AV-" depart="1792.00">
        <route edges="right-approaching bottom-exit"/>
    </vehicle>
    <vehicle id="L4-AV-257" type="L4-AV-" depart="1799.00">
        <route edges="bottom-approaching top-exit"/>
    </vehicle>
    <vehicle id="L4-AV-258" type="L4-AV-" depart="1806.00">
        <route edges="bottom-approaching top-exit"/>
    </vehicle>
    <vehicle id="L4-AV-259" type="L4-AV-" depart="1813.00">
        <route edges="right-approaching top-exit"/>
    </vehicle>
    <vehicle id="L4-AV-260" type="L4-AV-" depart="1820.00">
        <route edges="bottom-approaching closed-lane remerging-lane left-exit"/>
    </vehicle>
    <vehicle id="L4-AV-261" type="L4-AV-" depart="1827.00">
        <route edges="top-approaching bottom-exit"/>
    </vehicle>
    <vehicle id="L4-AV-262" type="L4-AV-" depart="1834.00">
        <route edges="bottom-approaching closed-lane remerging-lane left-exit"/>
    </vehicle>
    <vehicle id="L4-AV-264" type="L4-AV-" depart="1848.00">
        <route edges="right-approaching bottom-exit"/>
    </vehicle>
    <vehicle id="L4-AV-265" type="L4-AV-" depart="1855.00">
        <route edges="top-approaching right-exit"/>
    </vehicle>
    <vehicle id="L4-AV-266" type="L4-AV-" depart="1862.00">
        <route edges="bottom-approaching top-exit"/>
    </vehicle>
    <vehicle id="L4-AV-267" type="L4-AV-" depart="1869.00">
        <route edges="bottom-approaching closed-lane remerging-lane left-exit"/>
    </vehicle>
    <vehicle id="L4-AV-268" type="L4-AV-" depart="1876.00">
        <route edges="right-approaching bottom-exit"/>
    </vehicle>
    <vehicle id="L4-AV-269" type="L4-AV-Right-" depart="1883.00">
        <route edges="left-long-approaching preparation left-short-approaching bottom-exit"/>