<?xml version="1.0" ?><!-- generated on 03/26/21 01:36:23 by Eclipse SUMO duarouter Version 1.8.0
<configuration xmlns:xsi="http://www.w3.org/2001/XMLSchema-instance" xsi:noNamespaceSchemaLocation="http://sumo.dlr.de/xsd/duarouterConfiguration.xsd">

    <input>
        <net-file value="Roadworks/RoadworksIntersection.net.xml"/>
        <route-files value="trips.trips.xml"/>
    </input>

    <output>
        <output-file value="Roadworks/BaselinePenetration3/Route-Files/L4-AV-Route.rou.xml"/>
        <alternatives-output value="Roadworks/BaselinePenetration3/Route-Files/L4-AV-Route.rou.alt.xml"/>
    </output>

    <time>
        <begin value="0"/>
        <end value="3600"/>
    </time>

    <report>
        <no-warnings value="true"/>
        <ignore-errors value="true"/>
        <no-step-log value="true"/>
    </report>

</configuration>
--><routes xmlns:xsi="http://www.w3.org/2001/XMLSchema-instance" xsi:noNamespaceSchemaLocation="http://sumo.dlr.de/xsd/routes_file.xsd">
    <vehicle id="L4-AV-2" type="L4-AV-" depart="6.20">
        <route edges="top-approaching right-exit"/>
    </vehicle>
    <vehicle id="L4-AV-3" type="L4-AV-" depart="9.30">
        <route edges="right-approaching closed-lane remerging-lane left-exit"/>
    </vehicle>
    <vehicle id="L4-AV-5" type="L4-AV-" depart="15.50">
        <route edges="right-approaching bottom-exit"/>
    </vehicle>
    <vehicle id="L4-AV-7" type="L4-AV-" depart="21.70">
        <route edges="right-approaching top-exit"/>
    </vehicle>
    <vehicle id="L4-AV-8" type="L4-AV-" depart="24.80">
        <route edges="top-approaching right-exit"/>
    </vehicle>
    <vehicle id="L4-AV-12" type="L4-AV-Left-" depart="37.20">
        <route edges="left-long-approaching preparation"/>
    </vehicle>
    <vehicle id="L4-AV-15" type="L4-AV-Right-" depart="46.50">
        <route edges="left-long-approaching preparation left-short-approaching bottom-exit"/>
    </vehicle>
    <vehicle id="L4-AV-16" type="L4-AV-" depart="49.60">
        <route edges="right-approaching top-exit"/>
    </vehicle>
    <vehicle id="L4-AV-17" type="L4-AV-" depart="52.70">
        <route edges="right-approaching bottom-exit"/>
    </vehicle>
    <vehicle id="L4-AV-19" type="L4-AV-" depart="58.90">
        <route edges="right-approaching top-exit"/>
    </vehicle>
    <vehicle id="L4-AV-21" type="L4-AV-Left-" depart="65.10">
        <route edges="left-long-approaching preparation"/>
    </vehicle>
    <vehicle id="L4-AV-22" type="L4-AV-" depart="68.20">
        <route edges="top-approaching bottom-exit"/>
    </vehicle>
    <vehicle id="L4-AV-23" type="L4-AV-" depart="71.30">
        <route edges="top-approaching right-exit"/>
    </vehicle>
    <vehicle id="L4-AV-24" type="L4-AV-" depart="74.40">
        <route edges="left-long-approaching preparation left-short-approaching right-exit"/>
    </vehicle>
    <vehicle id="L4-AV-25" type="L4-AV-Left-" depart="77.50">
        <route edges="left-long-approaching preparation"/>
    </vehicle>
    <vehicle id="L4-AV-26" type="L4-AV-Left-" depart="80.60">
        <route edges="left-long-approaching preparation"/>
    </vehicle>
    <vehicle id="L4-AV-27" type="L4-AV-Left-" depart="83.70">
        <route edges="left-long-approaching preparation"/>
    </vehicle>
    <vehicle id="L4-AV-28" type="L4-AV-" depart="86.80">
        <route edges="top-approaching closed-lane remerging-lane left-exit"/>
    </vehicle>
    <vehicle id="L4-AV-29" type="L4-AV-" depart="89.90">
        <route edges="right-approaching top-exit"/>
    </vehicle>
    <vehicle id="L4-AV-30" type="L4-AV-" depart="93.00">
        <route edges="right-approaching closed-lane remerging-lane left-exit"/>
    </vehicle>
    <vehicle id="L4-AV-31" type="L4-AV-" depart="96.10">
        <route edges="bottom-approaching closed-lane remerging-lane left-exit"/>
    </vehicle>
    <vehicle id="L4-AV-32" type="L4-AV-" depart="99.20">
        <route edges="right-approaching bottom-exit"/>
    </vehicle>
    <vehicle id="L4-AV-33" type="L4-AV-" depart="102.30">
        <route edges="top-approaching closed-lane remerging-lane left-exit"/>
    </vehicle>
    <vehicle id="L4-AV-34" type="L4-AV-" depart="105.40">
        <route edges="top-approaching closed-lane remerging-lane left-exit"/>
    </vehicle>
    <vehicle id="L4-AV-35" type="L4-AV-" depart="108.50">
        <route edges="top-approaching right-exit"/>
    </vehicle>
    <vehicle id="L4-AV-38" type="L4-AV-Right-" depart="117.80">
        <route edges="left-long-approaching preparation left-short-approaching bottom-exit"/>
    </vehicle>
    <vehicle id="L4-AV-39" type="L4-AV-" depart="120.90">
        <route edges="right-approaching top-exit"/>
    </vehicle>
    <vehicle id="L4-AV-40" type="L4-AV-" depart="124.00">
        <route edges="right-approaching bottom-exit"/>
    </vehicle>
    <vehicle id="L4-AV-41" type="L4-AV-" depart="127.10">
        <route edges="top-approaching right-exit"/>
    </vehicle>
    <vehicle id="L4-AV-42" type="L4-AV-" depart="130.20">
        <route edges="top-approaching bottom-exit"/>
    </vehicle>
    <vehicle id="L4-AV-43" type="L4-AV-" depart="133.30">
        <route edges="right-approaching bottom-exit"/>
    </vehicle>
    <vehicle id="L4-AV-44" type="L4-AV-" depart="136.40">
        <route edges="right-approaching closed-lane remerging-lane left-exit"/>
    </vehicle>
    <vehicle id="L4-AV-45" type="L4-AV-" depart="139.50">
        <route edges="bottom-approaching top-exit"/>
    </vehicle>
    <vehicle id="L4-AV-46" type="L4-AV-" depart="142.60">
        <route edges="bottom-approaching right-exit"/>
    </vehicle>
    <vehicle id="L4-AV-47" type="L4-AV-" depart="145.70">
        <route edges="top-approaching bottom-exit"/>
    </vehicle>
    <vehicle id="L4-AV-48" type="L4-AV-" depart="148.80">
        <route edges="bottom-approaching top-exit"/>
    </vehicle>
    <vehicle id="L4-AV-49" type="L4-AV-" depart="151.90">
        <route edges="left-long-approaching preparation left-short-approaching right-exit"/>
    </vehicle>
    <vehicle id="L4-AV-50" type="L4-AV-" depart="155.00">
        <route edges="bottom-approaching closed-lane remerging-lane left-exit"/>
    </vehicle>
    <vehicle id="L4-AV-51" type="L4-AV-" depart="158.10">
        <route edges="bottom-approaching right-exit"/>
    </vehicle>
    <vehicle id="L4-AV-52" type="L4-AV-" depart="161.20">
        <route edges="bottom-approaching top-exit"/>
    </vehicle>
    <vehicle id="L4-AV-53" type="L4-AV-" depart="164.30">
        <route edges="bottom-approaching right-exit"/>
    </vehicle>
    <vehicle id="L4-AV-54" type="L4-AV-" depart="167.40">
        <route edges="bottom-approaching closed-lane remerging-lane left-exit"/>
    </vehicle>
    <vehicle id="L4-AV-55" type="L4-AV-" depart="170.50">
        <route edges="top-approaching bottom-exit"/>
    </vehicle>
    <vehicle id="L4-AV-56" type="L4-AV-" depart="173.60">
        <route edges="bottom-approaching right-exit"/>
    </vehicle>
    <vehicle id="L4-AV-57" type="L4-AV-Right-" depart="176.70">
        <route edges="left-long-approaching preparation left-short-approaching bottom-exit"/>
    </vehicle>
    <vehicle id="L4-AV-58" type="L4-AV-" depart="179.80">
        <route edges="top-approaching bottom-exit"/>
    </vehicle>
    <vehicle id="L4-AV-59" type="L4-AV-" depart="182.90">
        <route edges="bottom-approaching closed-lane remerging-lane left-exit"/>
    </vehicle>
    <vehicle id="L4-AV-61" type="L4-AV-" depart="189.10">
        <route edges="bottom-approaching closed-lane remerging-lane left-exit"/>
    </vehicle>
    <vehicle id="L4-AV-62" type="L4-AV-" depart="192.20">
        <route edges="bottom-approaching closed-lane remerging-lane left-exit"/>
    </vehicle>
    <vehicle id="L4-AV-63" type="L4-AV-" depart="195.30">
        <route edges="top-approaching right-exit"/>
    </vehicle>
    <vehicle id="L4-AV-65" type="L4-AV-" depart="201.50">
        <route edges="top-approaching right-exit"/>
    </vehicle>
    <vehicle id="L4-AV-66" type="L4-AV-Right-" depart="204.60">
        <route edges="left-long-approaching preparation left-short-approaching bottom-exit"/>
    </vehicle>
    <vehicle id="L4-AV-67" type="L4-AV-" depart="207.70">
        <route edges="right-approaching closed-lane remerging-lane left-exit"/>
    </vehicle>
    <vehicle id="L4-AV-68" type="L4-AV-" depart="210.80">
        <route edges="bottom-approaching closed-lane remerging-lane left-exit"/>
    </vehicle>
    <vehicle id="L4-AV-69" type="L4-AV-" depart="213.90">
        <route edges="top-approaching bottom-exit"/>
    </vehicle>
    <vehicle id="L4-AV-70" type="L4-AV-" depart="217.00">
        <route edges="right-approaching closed-lane remerging-lane left-exit"/>
    </vehicle>
    <vehicle id="L4-AV-71" type="L4-AV-" depart="220.10">
        <route edges="right-approaching bottom-exit"/>
    </vehicle>
    <vehicle id="L4-AV-72" type="L4-AV-" depart="223.20">
        <route edges="top-approaching closed-lane remerging-lane left-exit"/>
    </vehicle>
    <vehicle id="L4-AV-73" type="L4-AV-" depart="226.30">
        <route edges="right-approaching closed-lane remerging-lane left-exit"/>
    </vehicle>
    <vehicle id="L4-AV-74" type="L4-AV-" depart="229.40">
        <route edges="bottom-approaching right-exit"/>
    </vehicle>
    <vehicle id="L4-AV-77" type="L4-AV-" depart="238.70">
        <route edges="bottom-approaching right-exit"/>
    </vehicle>
    <vehicle id="L4-AV-78" type="L4-AV-" depart="241.80">
        <route edges="right-approaching top-exit"/>
    </vehicle>
    <vehicle id="L4-AV-80" type="L4-AV-" depart="248.00">
        <route edges="bottom-approaching closed-lane remerging-lane left-exit"/>
    </vehicle>
    <vehicle id="L4-AV-81" type="L4-AV-" depart="251.10">
        <route edges="left-long-approaching preparation left-short-approaching right-exit"/>
    </vehicle>
    <vehicle id="L4-AV-82" type="L4-AV-" depart="254.20">
        <route edges="right-approaching top-exit"/>
    </vehicle>
    <vehicle id="L4-AV-83" type="L4-AV-" depart="257.30">
        <route edges="right-approaching closed-lane remerging-lane left-exit"/>
    </vehicle>
    <vehicle id="L4-AV-84" type="L4-AV-" depart="260.40">
        <route edges="left-long-approaching preparation left-short-approaching right-exit"/>
    </vehicle>
    <vehicle id="L4-AV-86" type="L4-AV-Right-" depart="266.60">
        <route edges="left-long-approaching preparation left-short-approaching bottom-exit"/>
    </vehicle>
    <vehicle id="L4-AV-87" type="L4-AV-" depart="269.70">
        <route edges="right-approaching bottom-exit"/>
    </vehicle>
    <vehicle id="L4-AV-90" type="L4-AV-" depart="279.00">
        <route edges="right-approaching closed-lane remerging-lane left-exit"/>
    </vehicle>
    <vehicle id="L4-AV-91" type="L4-AV-" depart="282.10">
        <route edges="left-long-approaching preparation left-short-approaching right-exit"/>
    </vehicle>
    <vehicle id="L4-AV-92" type="L4-AV-" depart="285.20">
        <route edges="bottom-approaching top-exit"/>
    </vehicle>
    <vehicle id="L4-AV-93" type="L4-AV-" depart="288.30">
        <route edges="top-approaching right-exit"/>
    </vehicle>
    <vehicle id="L4-AV-94" type="L4-AV-" depart="291.40">
        <route edges="left-long-approaching preparation left-short-approaching right-exit"/>
    </vehicle>
    <vehicle id="L4-AV-95" type="L4-AV-" depart="294.50">
        <route edges="right-approaching bottom-exit"/>
    </vehicle>
    <vehicle id="L4-AV-96" type="L4-AV-" depart="297.60">
        <route edges="left-long-approaching preparation left-short-approaching right-exit"/>
    </vehicle>
    <vehicle id="L4-AV-98" type="L4-AV-" depart="303.80">
        <route edges="top-approaching closed-lane remerging-lane left-exit"/>
    </vehicle>
    <vehicle id="L4-AV-99" type="L4-AV-" depart="306.90">
        <route edges="right-approaching top-exit"/>
    </vehicle>
    <vehicle id="L4-AV-100" type="L4-AV-" depart="310.00">
        <route edges="right-approaching closed-lane remerging-lane left-exit"/>
    </vehicle>
    <vehicle id="L4-AV-101" type="L4-AV-" depart="313.10">
        <route edges="top-approaching closed-lane remerging-lane left-exit"/>
    </vehicle>
    <vehicle id="L4-AV-102" type="L4-AV-" depart="316.20">
        <route edges="bottom-approaching right-exit"/>
    </vehicle>
    <vehicle id="L4-AV-103" type="L4-AV-" depart="319.30">
        <route edges="bottom-approaching closed-lane remerging-lane left-exit"/>
    </vehicle>
    <vehicle id="L4-AV-104" type="L4-AV-" depart="322.40">
        <route edges="top-approaching right-exit"/>
    </vehicle>
    <vehicle id="L4-AV-105" type="L4-AV-" depart="325.50">
        <route edges="bottom-approaching closed-lane remerging-lane left-exit"/>
    </vehicle>
    <vehicle id="L4-AV-107" type="L4-AV-" depart="331.70">
        <route edges="bottom-approaching right-exit"/>
    </vehicle>
    <vehicle id="L4-AV-108" type="L4-AV-" depart="334.80">
        <route edges="bottom-approaching closed-lane remerging-lane left-exit"/>
    </vehicle>
    <vehicle id="L4-AV-109" type="L4-AV-Left-" depart="337.90">
        <route edges="left-long-approaching preparation"/>
    </vehicle>
    <vehicle id="L4-AV-110" type="L4-AV-" depart="341.00">
        <route edges="bottom-approaching top-exit"/>
    </vehicle>
    <vehicle id="L4-AV-111" type="L4-AV-" depart="344.10">
        <route edges="bottom-approaching right-exit"/>
    </vehicle>
    <vehicle id="L4-AV-113" type="L4-AV-" depart="350.30">
        <route edges="top-approaching closed-lane remerging-lane left-exit"/>
    </vehicle>
    <vehicle id="L4-AV-115" type="L4-AV-" depart="356.50">
        <route edges="bottom-approaching top-exit"/>
    </vehicle>
    <vehicle id="L4-AV-116" type="L4-AV-" depart="359.60">
        <route edges="right-approaching top-exit"/>
    </vehicle>
    <vehicle id="L4-AV-117" type="L4-AV-" depart="362.70">
        <route edges="right-approaching bottom-exit"/>
    </vehicle>
    <vehicle id="L4-AV-118" type="L4-AV-" depart="365.80">
        <route edges="right-approaching top-exit"/>
    </vehicle>
    <vehicle id="L4-AV-121" type="L4-AV-" depart="375.10">
        <route edges="top-approaching closed-lane remerging-lane left-exit"/>
    </vehicle>
    <vehicle id="L4-AV-122" type="L4-AV-" depart="378.20">
        <route edges="right-approaching closed-lane remerging-lane left-exit"/>
    </vehicle>
    <vehicle id="L4-AV-125" type="L4-AV-Right-" depart="387.50">
        <route edges="left-long-approaching preparation left-short-approaching bottom-exit"/>
    </vehicle>
    <vehicle id="L4-AV-127" type="L4-AV-" depart="393.70">
        <route edges="left-long-approaching preparation left-short-approaching right-exit"/>
    </vehicle>
    <vehicle id="L4-AV-128" type="L4-AV-" depart="396.80">
        <route edges="top-approaching right-exit"/>
    </vehicle>
    <vehicle id="L4-AV-129" type="L4-AV-" depart="399.90">
        <route edges="top-approaching bottom-exit"/>
    </vehicle>
    <vehicle id="L4-AV-130" type="L4-AV-Left-" depart="403.00">
        <route edges="left-long-approaching preparation"/>
    </vehicle>
    <vehicle id="L4-AV-131" type="L4-AV-" depart="406.10">
        <route edges="bottom-approaching closed-lane remerging-lane left-exit"/>
    </vehicle>
    <vehicle id="L4-AV-134" type="L4-AV-" depart="415.40">
        <route edges="right-approaching bottom-exit"/>
    </vehicle>
    <vehicle id="L4-AV-135" type="L4-AV-Right-" depart="418.50">
        <route edges="left-long-approaching preparation left-short-approaching bottom-exit"/>
    </vehicle>
    <vehicle id="L4-AV-137" type="L4-AV-" depart="424.70">
        <route edges="left-long-approaching preparation left-short-approaching right-exit"/>
    </vehicle>
    <vehicle id="L4-AV-138" type="L4-AV-" depart="427.80">
        <route edges="bottom-approaching right-exit"/>
    </vehicle>
    <vehicle id="L4-AV-140" type="L4-AV-" depart="434.00">
        <route edges="bottom-approaching right-exit"/>
    </vehicle>
    <vehicle id="L4-AV-141" type="L4-AV-" depart="437.10">
        <route edges="right-approaching closed-lane remerging-lane left-exit"/>
    </vehicle>
    <vehicle id="L4-AV-142" type="L4-AV-" depart="440.20">
        <route edges="top-approaching closed-lane remerging-lane left-exit"/>
    </vehicle>
    <vehicle id="L4-AV-143" type="L4-AV-" depart="443.30">
        <route edges="right-approaching closed-lane remerging-lane left-exit"/>
    </vehicle>
    <vehicle id="L4-AV-145" type="L4-AV-" depart="449.50">
        <route edges="right-approaching bottom-exit"/>
    </vehicle>
    <vehicle id="L4-AV-146" type="L4-AV-Right-" depart="452.60">
        <route edges="left-long-approaching preparation left-short-approaching bottom-exit"/>
    </vehicle>
    <vehicle id="L4-AV-147" type="L4-AV-" depart="455.70">
        <route edges="right-approaching top-exit"/>
    </vehicle>
    <vehicle id="L4-AV-148" type="L4-AV-" depart="458.80">
        <route edges="bottom-approaching right-exit"/>
    </vehicle>
    <vehicle id="L4-AV-150" type="L4-AV-" depart="465.00">
        <route edges="right-approaching top-exit"/>
    </vehicle>
    <vehicle id="L4-AV-151" type="L4-AV-" depart="468.10">
        <route edges="right-approaching closed-lane remerging-lane left-exit"/>
    </vehicle>
    <vehicle id="L4-AV-152" type="L4-AV-" depart="471.20">
        <route edges="top-approaching closed-lane remerging-lane left-exit"/>
    </vehicle>
    <vehicle id="L4-AV-155" type="L4-AV-" depart="480.50">
        <route edges="bottom-approaching right-exit"/>
    </vehicle>
    <vehicle id="L4-AV-156" type="L4-AV-" depart="483.60">
        <route edges="left-long-approaching preparation left-short-approaching right-exit"/>
    </vehicle>
    <vehicle id="L4-AV-157" type="L4-AV-" depart="486.70">
        <route edges="top-approaching right-exit"/>
    </vehicle>
    <vehicle id="L4-AV-158" type="L4-AV-" depart="489.80">
        <route edges="bottom-approaching closed-lane remerging-lane left-exit"/>
    </vehicle>
    <vehicle id="L4-AV-159" type="L4-AV-" depart="492.90">
        <route edges="right-approaching top-exit"/>
    </vehicle>
    <vehicle id="L4-AV-160" type="L4-AV-" depart="496.00">
        <route edges="right-approaching top-exit"/>
    </vehicle>
    <vehicle id="L4-AV-161" type="L4-AV-" depart="499.10">
        <route edges="bottom-approaching top-exit"/>
    </vehicle>
    <vehicle id="L4-AV-164" type="L4-AV-" depart="508.40">
        <route edges="bottom-approaching top-exit"/>
    </vehicle>
    <vehicle id="L4-AV-165" type="L4-AV-" depart="511.50">
        <route edges="top-approaching bottom-exit"/>
    </vehicle>
    <vehicle id="L4-AV-167" type="L4-AV-" depart="517.70">
        <route edges="bottom-approaching top-exit"/>
    </vehicle>
    <vehicle id="L4-AV-168" type="L4-AV-" depart="520.80">
        <route edges="bottom-approaching right-exit"/>
    </vehicle>
    <vehicle id="L4-AV-170" type="L4-AV-" depart="527.00">
        <route edges="right-approaching closed-lane remerging-lane left-exit"/>
    </vehicle>
    <vehicle id="L4-AV-171" type="L4-AV-" depart="530.10">
        <route edges="bottom-approaching top-exit"/>
    </vehicle>
    <vehicle id="L4-AV-173" type="L4-AV-Left-" depart="536.30">
        <route edges="left-long-approaching preparation"/>
    </vehicle>
    <vehicle id="L4-AV-174" type="L4-AV-" depart="539.40">
        <route edges="right-approaching top-exit"/>
    </vehicle>
    <vehicle id="L4-AV-175" type="L4-AV-" depart="542.50">
        <route edges="left-long-approaching preparation left-short-approaching right-exit"/>
    </vehicle>
    <vehicle id="L4-AV-177" type="L4-AV-Right-" depart="548.70">
        <route edges="left-long-approaching preparation left-short-approaching bottom-exit"/>
    </vehicle>
    <vehicle id="L4-AV-178" type="L4-AV-" depart="551.80">
        <route edges="bottom-approaching top-exit"/>
    </vehicle>
    <vehicle id="L4-AV-179" type="L4-AV-" depart="554.90">
        <route edges="bottom-approaching right-exit"/>
    </vehicle>
    <vehicle id="L4-AV-180" type="L4-AV-" depart="558.00">
        <route edges="top-approaching closed-lane remerging-lane left-exit"/>
    </vehicle>
    <vehicle id="L4-AV-181" type="L4-AV-" depart="561.10">
        <route edges="right-approaching top-exit"/>
    </vehicle>
    <vehicle id="L4-AV-182" type="L4-AV-" depart="564.20">
        <route edges="top-approaching bottom-exit"/>
    </vehicle>
    <vehicle id="L4-AV-183" type="L4-AV-" depart="567.30">
        <route edges="bottom-approaching closed-lane remerging-lane left-exit"/>
    </vehicle>
    <vehicle id="L4-AV-185" type="L4-AV-" depart="573.50">
        <route edges="bottom-approaching right-exit"/>
    </vehicle>
    <vehicle id="L4-AV-186" type="L4-AV-" depart="576.60">
        <route edges="top-approaching closed-lane remerging-lane left-exit"/>
    </vehicle>
    <vehicle id="L4-AV-187" type="L4-AV-" depart="579.70">
        <route edges="right-approaching closed-lane remerging-lane left-exit"/>
    </vehicle>
    <vehicle id="L4-AV-188" type="L4-AV-Left-" depart="582.80">
        <route edges="left-long-approaching preparation"/>
    </vehicle>
    <vehicle id="L4-AV-189" type="L4-AV-" depart="585.90">
        <route edges="left-long-approaching preparation left-short-approaching right-exit"/>
    </vehicle>
    <vehicle id="L4-AV-190" type="L4-AV-" depart="589.00">
        <route edges="left-long-approaching preparation left-short-approaching right-exit"/>
    </vehicle>
    <vehicle id="L4-AV-191" type="L4-AV-" depart="592.10">
        <route edges="top-approaching bottom-exit"/>
    </vehicle>
    <vehicle id="L4-AV-192" type="L4-AV-" depart="595.20">
        <route edges="top-approaching closed-lane remerging-lane left-exit"/>
    </vehicle>
    <vehicle id="L4-AV-193" type="L4-AV-" depart="598.30">
        <route edges="right-approaching top-exit"/>
    </vehicle>
    <vehicle id="L4-AV-194" type="L4-AV-" depart="601.40">
        <route edges="right-approaching closed-lane remerging-lane left-exit"/>
    </vehicle>
    <vehicle id="L4-AV-195" type="L4-AV-" depart="604.50">
        <route edges="top-approaching bottom-exit"/>
    </vehicle>
    <vehicle id="L4-AV-196" type="L4-AV-" depart="607.60">
        <route edges="right-approaching closed-lane remerging-lane left-exit"/>
    </vehicle>
    <vehicle id="L4-AV-197" type="L4-AV-" depart="610.70">
        <route edges="right-approaching top-exit"/>
    </vehicle>
    <vehicle id="L4-AV-198" type="L4-AV-" depart="613.80">
        <route edges="top-approaching right-exit"/>
    </vehicle>
    <vehicle id="L4-AV-199" type="L4-AV-Right-" depart="616.90">
        <route edges="left-long-approaching preparation left-short-approaching bottom-exit"/>
    </vehicle>
    <vehicle id="L4-AV-200" type="L4-AV-Right-" depart="620.00">
        <route edges="left-long-approaching preparation left-short-approaching bottom-exit"/>
    </vehicle>
    <vehicle id="L4-AV-201" type="L4-AV-Left-" depart="623.10">
        <route edges="left-long-approaching preparation"/>
    </vehicle>
    <vehicle id="L4-AV-202" type="L4-AV-" depart="626.20">
        <route edges="bottom-approaching top-exit"/>
    </vehicle>
    <vehicle id="L4-AV-204" type="L4-AV-Right-" depart="632.40">
        <route edges="left-long-approaching preparation left-short-approaching bottom-exit"/>
    </vehicle>
    <vehicle id="L4-AV-205" type="L4-AV-Right-" depart="635.50">
        <route edges="left-long-approaching preparation left-short-approaching bottom-exit"/>
    </vehicle>
    <vehicle id="L4-AV-208" type="L4-AV-" depart="644.80">
        <route edges="left-long-approaching preparation left-short-approaching right-exit"/>
    </vehicle>
    <vehicle id="L4-AV-209" type="L4-AV-" depart="647.90">
        <route edges="top-approaching closed-lane remerging-lane left-exit"/>
    </vehicle>
    <vehicle id="L4-AV-211" type="L4-AV-" depart="654.10">
        <route edges="bottom-approaching right-exit"/>
    </vehicle>
    <vehicle id="L4-AV-213" type="L4-AV-" depart="660.30">
        <route edges="top-approaching bottom-exit"/>
    </vehicle>
    <vehicle id="L4-AV-214" type="L4-AV-" depart="663.40">
        <route edges="top-approaching right-exit"/>
    </vehicle>
    <vehicle id="L4-AV-215" type="L4-AV-Left-" depart="666.50">
        <route edges="left-long-approaching preparation"/>
    </vehicle>
    <vehicle id="L4-AV-216" type="L4-AV-Left-" depart="669.60">
        <route edges="left-long-approaching preparation"/>
    </vehicle>
    <vehicle id="L4-AV-218" type="L4-AV-" depart="675.80">
        <route edges="right-approaching top-exit"/>
    </vehicle>
    <vehicle id="L4-AV-222" type="L4-AV-" depart="688.20">
        <route edges="left-long-approaching preparation left-short-approaching right-exit"/>
    </vehicle>
    <vehicle id="L4-AV-223" type="L4-AV-" depart="691.30">
        <route edges="right-approaching closed-lane remerging-lane left-exit"/>
    </vehicle>
    <vehicle id="L4-AV-224" type="L4-AV-Right-" depart="694.40">
        <route edges="left-long-approaching preparation left-short-approaching bottom-exit"/>
    </vehicle>
    <vehicle id="L4-AV-225" type="L4-AV-" depart="697.50">
        <route edges="top-approaching closed-lane remerging-lane left-exit"/>
    </vehicle>
    <vehicle id="L4-AV-226" type="L4-AV-Left-" depart="700.60">
        <route edges="left-long-approaching preparation"/>
    </vehicle>
    <vehicle id="L4-AV-227" type="L4-AV-" depart="703.70">
        <route edges="bottom-approaching top-exit"/>
    </vehicle>
    <vehicle id="L4-AV-231" type="L4-AV-" depart="716.10">
        <route edges="top-approaching closed-lane remerging-lane left-exit"/>
    </vehicle>
    <vehicle id="L4-AV-232" type="L4-AV-" depart="719.20">
        <route edges="right-approaching bottom-exit"/>
    </vehicle>
    <vehicle id="L4-AV-233" type="L4-AV-" depart="722.30">
        <route edges="top-approaching closed-lane remerging-lane left-exit"/>
    </vehicle>
    <vehicle id="L4-AV-234" type="L4-AV-" depart="725.40">
        <route edges="left-long-approaching preparation left-short-approaching right-exit"/>
    </vehicle>
    <vehicle id="L4-AV-235" type="L4-AV-" depart="728.50">
        <route edges="bottom-approaching closed-lane remerging-lane left-exit"/>
    </vehicle>
    <vehicle id="L4-AV-236" type="L4-AV-" depart="731.60">
        <route edges="top-approaching bottom-exit"/>
    </vehicle>
    <vehicle id="L4-AV-241" type="L4-AV-" depart="747.10">
        <route edges="right-approaching closed-lane remerging-lane left-exit"/>
    </vehicle>
    <vehicle id="L4-AV-242" type="L4-AV-Left-" depart="750.20">
        <route edges="left-long-approaching preparation"/>
    </vehicle>
    <vehicle id="L4-AV-244" type="L4-AV-" depart="756.40">
        <route edges="top-approaching closed-lane remerging-lane left-exit"/>
    </vehicle>
    <vehicle id="L4-AV-245" type="L4-AV-" depart="759.50">
        <route edges="top-approaching bottom-exit"/>
    </vehicle>
    <vehicle id="L4-AV-246" type="L4-AV-" depart="762.60">
        <route edges="right-approaching top-exit"/>
    </vehicle>
    <vehicle id="L4-AV-247" type="L4-AV-Left-" depart="765.70">
        <route edges="left-long-approaching preparation"/>
    </vehicle>
    <vehicle id="L4-AV-248" type="L4-AV-" depart="768.80">
        <route edges="right-approaching closed-lane remerging-lane left-exit"/>
    </vehicle>
    <vehicle id="L4-AV-249" type="L4-AV-" depart="771.90">
        <route edges="top-approaching closed-lane remerging-lane left-exit"/>
    </vehicle>
    <vehicle id="L4-AV-250" type="L4-AV-" depart="775.00">
        <route edges="left-long-approaching preparation left-short-approaching right-exit"/>
    </vehicle>
    <vehicle id="L4-AV-251" type="L4-AV-Left-" depart="778.10">
        <route edges="left-long-approaching preparation"/>
    </vehicle>
    <vehicle id="L4-AV-253" type="L4-AV-" depart="784.30">
        <route edges="right-approaching top-exit"/>
    </vehicle>
    <vehicle id="L4-AV-256" type="L4-AV-" depart="793.60">
        <route edges="right-approaching bottom-exit"/>
    </vehicle>
    <vehicle id="L4-AV-257" type="L4-AV-" depart="796.70">
        <route edges="bottom-approaching top-exit"/>
    </vehicle>
    <vehicle id="L4-AV-258" type="L4-AV-" depart="799.80">
        <route edges="bottom-approaching top-exit"/>
    </vehicle>
    <vehicle id="L4-AV-259" type="L4-AV-" depart="802.90">
        <route edges="right-approaching top-exit"/>
    </vehicle>
    <vehicle id="L4-AV-260" type="L4-AV-" depart="806.00">
        <route edges="bottom-approaching closed-lane remerging-lane left-exit"/>
    </vehicle>
    <vehicle id="L4-AV-261" type="L4-AV-" depart="809.10">
        <route edges="top-approaching bottom-exit"/>
    </vehicle>
    <vehicle id="L4-AV-262" type="L4-AV-" depart="812.20">
        <route edges="bottom-approaching closed-lane remerging-lane left-exit"/>
    </vehicle>
    <vehicle id="L4-AV-264" type="L4-AV-" depart="818.40">
        <route edges="right-approaching bottom-exit"/>
    </vehicle>
    <vehicle id="L4-AV-265" type="L4-AV-" depart="821.50">
        <route edges="top-approaching right-exit"/>
    </vehicle>
    <vehicle id="L4-AV-266" type="L4-AV-" depart="824.60">
        <route edges="bottom-approaching top-exit"/>
    </vehicle>
    <vehicle id="L4-AV-267" type="L4-AV-" depart="827.70">
        <route edges="bottom-approaching closed-lane remerging-lane left-exit"/>
    </vehicle>
    <vehicle id="L4-AV-268" type="L4-AV-" depart="830.80">
        <route edges="right-approaching bottom-exit"/>
    </vehicle>
    <vehicle id="L4-AV-269" type="L4-AV-Right-" depart="833.90">
        <route edges="left-long-approaching preparation left-short-approaching bottom-exit"/>
    </vehicle>
    <vehicle id="L4-AV-270" type="L4-AV-" depart="837.00">