<additional>
    <e1Detector id="left-exit_0" lane="left-exit_0" pos="5" freq="1000" file="left-approaching.out.xml"/>
    <e1Detector id="left-exit_1" lane="left-exit_1" pos="1" freq="1000" file="left-approaching.out.xml"/>
    <e1Detector id="left-exit_2" lane="left-exit_0" pos="150" freq="1000" file="left-approaching.out.xml"/>
    <e1Detector id="left-exit_3" lane="left-exit_1" pos="150" freq="1000" file="left-approaching.out.xml"/>

    <e1Detector id="close-top-approaching_0" lane="top-approaching_0" pos="480" freq="1000" file="left-approaching.out.xml"/>
    <e1Detector id="close-top-approaching_1" lane="top-approaching_1" pos="480" freq="1000" file="left-approaching.out.xml"/>
    <e1Detector id="close-top-approaching_2" lane="top-approaching_2" pos="480" freq="1000" file="left-approaching.out.xml"/>

    <e1Detector id="close-right-approaching_0" lane="right-approaching_0" pos="480" freq="1000" file="left-short-approaching.out.xml"/>
    <e1Detector id="close-right-approaching_1" lane="right-approaching_1" pos="480" freq="1000" file="left-short-approaching.out.xml"/>
    <e1Detector id="close-right-approaching_2" lane="right-approaching_2" pos="480" freq="1000" file="left-short-approaching.out.xml"/>

    <e1Detector id="close-bottom-approaching_0" lane="bottom-approaching_0" pos="480" freq="1000" file="left-short-approaching.out.xml"/>
    <e1Detector id="close-bottom-approaching_1" lane="bottom-approaching_1" pos="480" freq="1000" file="left-short-approaching.out.xml"/>
    <e1Detector id="close-bottom-approaching_2" lane="bottom-approaching_2" pos="480" freq="1000" file="left-short-approaching.out.xml"/>

    <e1Detector id="TMS-top-approaching_0" lane="top-approaching_0" pos="420" freq="1000" file="left-approaching.out.xml"/>
    <e1Detector id="TMS-top-approaching_1" lane="top-approaching_1" pos="420" freq="1000" file="left-approaching.out.xml"/>
    <e1Detector id="TMS-top-approaching_2" lane="top-approaching_2" pos="420" freq="1000" file="left-approaching.out.xml"/>

    <e1Detector id="TMS-right-approaching_0" lane="right-approaching_0" pos="420" freq="1000" file="left-short-approaching.out.xml"/>
    <e1Detector id="TMS-right-approaching_1" lane="right-approaching_1" pos="420" freq="1000" file="left-short-approaching.out.xml"/>
    <e1Detector id="TMS-right-approaching_2" lane="right-approaching_2" pos="420" freq="1000" file="left-short-approaching.out.xml"/>

    <e1Detector id="TMS-bottom-approaching_0" lane="bottom-approaching_0" pos="420" freq="1000" file="left-short-approaching.out.xml"/>
    <e1Detector id="TMS-bottom-approaching_1" lane="bottom-approaching_1" pos="420" freq="1000" file="left-short-approaching.out.xml"/>
    <e1Detector id="TMS-bottom-approaching_2" lane="bottom-approaching_2" pos="420" freq="1000" file="left-short-approaching.out.xml"/>

    <e1Detector id="far-top-approaching_0" lane="top-approaching_0" pos="200" freq="1000" file="left-approaching.out.xml"/>
    <e1Detector id="far-top-approaching_1" lane="top-approaching_1" pos="200" freq="1000" file="left-approaching.out.xml"/>
    <e1Detector id="far-top-approaching_2" lane="top-approaching_2" pos="200" freq="1000" file="left-approaching.out.xml"/>
    <e1Detector id="far-right-approaching_0" lane="right-approaching_0" pos="200" freq="1000" file="left-short-approaching.out.xml"/>
    <e1Detector id="far-right-approaching_1" lane="right-approaching_1" pos="200" freq="1000" file="left-short-approaching.out.xml"/>
    <e1Detector id="far-right-approaching_2" lane="right-approaching_2" pos="200" freq="1000" file="left-short-approaching.out.xml"/>
    <e1Detector id="far-bottom-approaching_0" lane="bottom-approaching_0" pos="200" freq="1000" file="left-short-approaching.out.xml"/>
    <e1Detector id="far-bottom-approaching_1" lane="bottom-approaching_1" pos="200" freq="1000" file="left-short-approaching.out.xml"/>
    <e1Detector id="far-bottom-approaching_2" lane="bottom-approaching_2" pos="200" freq="1000" file="left-short-approaching.out.xml"/>
</additional>