<additional>
    <!-- <e1Detector id="det_0" lane="left-long-approaching_2" pos="420" freq="10" file="left-approaching.out.xml"/>
    <e1Detector id="det_1" lane="left-long-approaching_2" pos="420" freq="10" file="left-approaching.out.xml"/>
    <e1Detector id="det_0" lane="left-long-approaching_2" pos="420" freq="10" file="left-approaching.out.xml"/> -->
</additional>