<additional>
    <tlLogic id="center" type="actuated" programID="my_program" offset="10">
  	    <param key="max-gap" value="10.0"/>
  	    <param key="detector-gap" value="2.0"/>
  	    <param key="vTypes" value=""/>
  	    <param key="show-detectors" value="true"/>
  	    <param key="freq" value="300"/>

   	    <phase duration="18" maxDur="25" state="GGGgrrrrGGGgrrr"/>
	    <phase duration="5" maxDur="6" state=  "yyygrrrryyygrrr"/>
	    <phase duration="10" maxDur="17" state="rrrGrrrrrrrGrrr"/>
		<phase duration="5" maxDur="6" state=  "rrryrrrrrrryrrr"/>    
	    <phase duration="22" maxDur="25" state="rrrrGGGgrrrrGGg"/>
	    <phase duration="5" maxDur="6" state=  "rrrryyygrrrryyg"/>
	    <phase duration="14" maxDur="17" state="rrrrrrrGrrrrrrG"/>  
		<phase duration="5" maxDur="6" state=  "rrrrrrryrrrrrry"/>    
    	<phase duration="10" maxDur="10" state="rrrrrrrrrrrrrrr"/>
    </tlLogic>
</additional>