<additional>
    <tlLogic id="center" type="actuated" programID="my_program" offset="10">
  	    <param key="max-gap" value="10.0"/>
  	    <param key="detector-gap" value="2.0"/>
  	    <param key="vTypes" value=""/>
  	    <param key="show-detectors" value="true"/>
  	    <param key="freq" value="300"/>

   	    <phase duration="18" maxDur="25" state="GGgrrrrGGgrrr"/>
	    <phase duration="5" maxDur="6" state="yygrrrryygrrr"/>
	    <phase duration="10" maxDur="17" state="rrGrrrrrrGrrr"/>
		<phase duration="5" maxDur="6" state="rryrrrrryrrrr"/>    

	    <phase duration="22" maxDur="25" state="rrrGGGgrrrGGg"/>
	    <phase duration="5" maxDur="6" state="rrryyygrrryyg"/>
	    <phase duration="14" maxDur="17" state="rrrrrrGrrrrrG"/>  
		<phase duration="5" maxDur="6" state="rrrrrryrrrrry"/>    
    
	    <phase duration="10" maxDur="10" state="rrrrrrrrrrrrr"/>
    </tlLogic>
</additional>