<additional >

    
    <poi id="Traffic-Light-Sign-Top" type="Traffic-Lights" layer="0" x="485" y="570" width="5" height="5" color="255, 255, 255" imgFile="../../RoadSigns/traffic_lights.png"/>
    <poi id="Traffic-Light-Sign-Left" type="Traffic-Lights" layer="0" x="430" y="485" width="5" height="5" color="255, 255, 255" imgFile="../../RoadSigns/traffic_lights.png"/>
    <poi id="Traffic-Light-Sign-Bottom" type="Traffic-Lights" layer="0" x="515" y="430" width="5" height="5" color="255, 255, 255" imgFile="../../RoadSigns/traffic_lights.png"/>
    <poi id="Traffic-Light-Sign-Right" type="Traffic-Lights" layer="0" x="570" y="515" width="5" height="5" color="255, 255, 255" imgFile="../../RoadSigns/traffic_lights.png"/>

    <poi id="Intersection-Sign-Top" type="Intersection" layer="0" x="485" y="590" width="5" height="5" color="255, 255, 255" imgFile="../../RoadSigns/Intersection-Sign.jpg"/>
    <poi id="Intersection-Sign-Left" type="Intersection" layer="0" x="410" y="485" width="5" height="5" color="255, 255, 255" imgFile="../../RoadSigns/Intersection-Sign.jpg"/>
    <poi id="Intersection-Sign-Bottom" type="Intersection" layer="0" x="515" y="410" width="5" height="5" color="255, 255, 255" imgFile="../../RoadSigns/Intersection-Sign.jpg"/>
    <poi id="Intersection-Sign-Right" type="Intersection" layer="0" x="590" y="515" width="5" height="5" color="255, 255, 255" imgFile="../../RoadSigns/Intersection-Sign.jpg"/>

</additional>