<additional>
    <tlLogic id="center" type="actuated" programID="my_program" offset="10">
  	    <param key="max-gap" value="10.0"/>
  	    <param key="detector-gap" value="2.0"/>
  	    <param key="vTypes" value=""/>
  	    <param key="show-detectors" value="true"/>
  	    <param key="freq" value="300"/>

   	    <!-- <phase duration="18" maxDur="25" state="GGggrrrrGGggrrr"/>
	    <phase duration="5" maxDur="6" state=  "yyggrrrryyggrrr"/>
	    <phase duration="10" maxDur="17" state="rrGGrrrrrrGGrrr"/>
		<phase duration="5" maxDur="6" state=  "rryyrrrrrryyrrr"/>    
	    <phase duration="22" maxDur="25" state="rrrrGGggrrrrGGg"/>
	    <phase duration="5" maxDur="6" state=  "rrrryyggrrrryyg"/>
	    <phase duration="14" maxDur="17" state="rrrrrrGGrrrrrrG"/>  
		<phase duration="5" maxDur="6" state=  "rrrrrryyrrrrrry"/>    
    	<phase duration="10" maxDur="10" state="rrrrrrrrrrrrrrr"/> -->

		<phase duration="18" maxDur="25" state="GGGgrrrrGGgrrrrr"/>
	    <phase duration="5" maxDur="6" state=  "yyygrrrryygrrrrr"/>
	    <phase duration="10" maxDur="17" state="rrrGrrrrrrGrrrrr"/>
		<phase duration="5" maxDur="6" state=  "rrryrrrrrryrrrrr"/>    
	    <phase duration="22" maxDur="25" state="rrrrGGGgrrrGGGgg"/>
	    <phase duration="5" maxDur="6" state=  "rrrryyygrrryyygg"/>
	    <phase duration="14" maxDur="17" state="rrrrrrrGrrrrrrGG"/>  
		<phase duration="5" maxDur="6" state=  "rrrrrrryrrrrrryy"/>    
    	<phase duration="10" maxDur="10" state="rrrrrrrrrrrrrrrr"/>
    </tlLogic>
</additional>