<additional>
	<rerouter id="123" edges="left-short-approaching">
    	<interval begin="0" end="4500">
    		<closingLaneReroute id="left-short-approaching_2" disallow="custom1" >
    			<param key="preventingCAVsEnterLeftLane" value="true"/> 
    		</closingLaneReroute>
       	</interval>
    </rerouter>

	<rerouter id="123" edges="left-short-approaching">
    	<interval begin="0" end="4500">
    		<closingLaneReroute id="left-short-approaching_1" disallow="custom2" >
    			<param key="preventingCAVsEnterLeftLane" value="true"/> 
    		</closingLaneReroute>
       	</interval>
    </rerouter>
</additional>