<?xml version="1.0" ?><!-- generated on 03/17/21 14:51:41 by Eclipse SUMO duarouter Version 1.8.0
<configuration xmlns:xsi="http://www.w3.org/2001/XMLSchema-instance" xsi:noNamespaceSchemaLocation="http://sumo.dlr.de/xsd/duarouterConfiguration.xsd">

    <input>
        <net-file value="Roadworks/RoadworksIntersection.net.xml"/>
        <route-files value="trips.trips.xml"/>
    </input>

    <output>
        <output-file value="Roadworks/RealTMSPenetration3/Route-Files/L2-AV-Route.rou.xml"/>
        <alternatives-output value="Roadworks/RealTMSPenetration3/Route-Files/L2-AV-Route.rou.alt.xml"/>
    </output>

    <time>
        <begin value="0"/>
        <end value="3600"/>
    </time>

    <report>
        <no-warnings value="true"/>
        <ignore-errors value="true"/>
        <no-step-log value="true"/>
    </report>

</configuration>
--><routes xmlns:xsi="http://www.w3.org/2001/XMLSchema-instance" xsi:noNamespaceSchemaLocation="http://sumo.dlr.de/xsd/routes_file.xsd">
    <vehicle id="L2-AV-1" type="L2-AV-Right-" depart="8.40">
        <route edges="left-long-approaching preparation left-short-approaching bottom-exit"/>
    </vehicle>
    <vehicle id="L2-AV-2" type="L2-AV-" depart="16.80">
        <route edges="bottom-approaching closed-lane remerging-lane left-exit"/>
    </vehicle>
    <vehicle id="L2-AV-4" type="L2-AV-" depart="33.60">
        <route edges="top-approaching bottom-exit"/>
    </vehicle>
    <vehicle id="L2-AV-5" type="L2-AV-" depart="42.00">
        <route edges="right-approaching closed-lane remerging-lane left-exit"/>
    </vehicle>
    <vehicle id="L2-AV-7" type="L2-AV-" depart="58.80">
        <route edges="bottom-approaching top-exit"/>
    </vehicle>
    <vehicle id="L2-AV-9" type="L2-AV-" depart="75.60">
        <route edges="top-approaching bottom-exit"/>
    </vehicle>
    <vehicle id="L2-AV-10" type="L2-AV-" depart="84.00">
        <route edges="left-long-approaching preparation left-short-approaching right-exit"/>
    </vehicle>
    <vehicle id="L2-AV-11" type="L2-AV-" depart="92.40">
        <route edges="right-approaching top-exit"/>
    </vehicle>
    <vehicle id="L2-AV-12" type="L2-AV-" depart="100.80">
        <route edges="top-approaching bottom-exit"/>
    </vehicle>
    <vehicle id="L2-AV-14" type="L2-AV-" depart="117.60">
        <route edges="right-approaching bottom-exit"/>
    </vehicle>
    <vehicle id="L2-AV-15" type="L2-AV-Right-" depart="126.00">
        <route edges="left-long-approaching preparation left-short-approaching bottom-exit"/>
    </vehicle>
    <vehicle id="L2-AV-17" type="L2-AV-" depart="142.80">
        <route edges="right-approaching closed-lane remerging-lane left-exit"/>
    </vehicle>
    <vehicle id="L2-AV-18" type="L2-AV-" depart="151.20">
        <route edges="top-approaching right-exit"/>
    </vehicle>
    <vehicle id="L2-AV-20" type="L2-AV-" depart="168.00">
        <route edges="right-approaching closed-lane remerging-lane left-exit"/>
    </vehicle>
    <vehicle id="L2-AV-21" type="L2-AV-" depart="176.40">
        <route edges="right-approaching closed-lane remerging-lane left-exit"/>
    </vehicle>
    <vehicle id="L2-AV-22" type="L2-AV-" depart="184.80">
        <route edges="bottom-approaching closed-lane remerging-lane left-exit"/>
    </vehicle>
    <vehicle id="L2-AV-23" type="L2-AV-" depart="193.20">
        <route edges="top-approaching bottom-exit"/>
    </vehicle>
    <vehicle id="L2-AV-24" type="L2-AV-" depart="201.60">
        <route edges="bottom-approaching right-exit"/>
    </vehicle>
    <vehicle id="L2-AV-25" type="L2-AV-" depart="210.00">
        <route edges="left-long-approaching preparation left-short-approaching right-exit"/>
    </vehicle>
    <vehicle id="L2-AV-27" type="L2-AV-" depart="226.80">
        <route edges="top-approaching bottom-exit"/>
    </vehicle>
    <vehicle id="L2-AV-28" type="L2-AV-Right-" depart="235.20">
        <route edges="left-long-approaching preparation left-short-approaching bottom-exit"/>
    </vehicle>
    <vehicle id="L2-AV-29" type="L2-AV-" depart="243.60">
        <route edges="right-approaching closed-lane remerging-lane left-exit"/>
    </vehicle>
    <vehicle id="L2-AV-30" type="L2-AV-" depart="252.00">
        <route edges="left-long-approaching preparation left-short-approaching right-exit"/>
    </vehicle>
    <vehicle id="L2-AV-31" type="L2-AV-" depart="260.40">
        <route edges="left-long-approaching preparation left-short-approaching right-exit"/>
    </vehicle>
    <vehicle id="L2-AV-32" type="L2-AV-" depart="268.80">
        <route edges="top-approaching bottom-exit"/>
    </vehicle>
    <vehicle id="L2-AV-34" type="L2-AV-" depart="285.60">
        <route edges="top-approaching right-exit"/>
    </vehicle>
    <vehicle id="L2-AV-35" type="L2-AV-" depart="294.00">
        <route edges="bottom-approaching closed-lane remerging-lane left-exit"/>
    </vehicle>
    <vehicle id="L2-AV-36" type="L2-AV-" depart="302.40">
        <route edges="bottom-approaching closed-lane remerging-lane left-exit"/>
    </vehicle>
    <vehicle id="L2-AV-37" type="L2-AV-" depart="310.80">
        <route edges="bottom-approaching right-exit"/>
    </vehicle>
    <vehicle id="L2-AV-39" type="L2-AV-" depart="327.60">
        <route edges="right-approaching top-exit"/>
    </vehicle>
    <vehicle id="L2-AV-40" type="L2-AV-" depart="336.00">
        <route edges="bottom-approaching closed-lane remerging-lane left-exit"/>
    </vehicle>
    <vehicle id="L2-AV-42" type="L2-AV-Left-" depart="352.80">
        <route edges="left-long-approaching preparation"/>
    </vehicle>
    <vehicle id="L2-AV-43" type="L2-AV-" depart="361.20">
        <route edges="right-approaching top-exit"/>
    </vehicle>
    <vehicle id="L2-AV-44" type="L2-AV-Right-" depart="369.60">
        <route edges="left-long-approaching preparation left-short-approaching bottom-exit"/>
    </vehicle>
    <vehicle id="L2-AV-45" type="L2-AV-Right-" depart="378.00">
        <route edges="left-long-approaching preparation left-short-approaching bottom-exit"/>
    </vehicle>
    <vehicle id="L2-AV-46" type="L2-AV-Left-" depart="386.40">
        <route edges="left-long-approaching preparation"/>
    </vehicle>
    <vehicle id="L2-AV-47" type="L2-AV-Right-" depart="394.80">
        <route edges="left-long-approaching preparation left-short-approaching bottom-exit"/>
    </vehicle>
    <vehicle id="L2-AV-49" type="L2-AV-" depart="411.60">
        <route edges="top-approaching closed-lane remerging-lane left-exit"/>
    </vehicle>
    <vehicle id="L2-AV-50" type="L2-AV-Right-" depart="420.00">
        <route edges="left-long-approaching preparation left-short-approaching bottom-exit"/>
    </vehicle>
    <vehicle id="L2-AV-51" type="L2-AV-" depart="428.40">
        <route edges="top-approaching closed-lane remerging-lane left-exit"/>
    </vehicle>
    <vehicle id="L2-AV-54" type="L2-AV-" depart="453.60">
        <route edges="right-approaching bottom-exit"/>
    </vehicle>
    <vehicle id="L2-AV-55" type="L2-AV-" depart="462.00">
        <route edges="bottom-approaching closed-lane remerging-lane left-exit"/>
    </vehicle>
    <vehicle id="L2-AV-56" type="L2-AV-Left-" depart="470.40">
        <route edges="left-long-approaching preparation"/>
    </vehicle>
    <vehicle id="L2-AV-57" type="L2-AV-" depart="478.80">
        <route edges="bottom-approaching right-exit"/>
    </vehicle>
    <vehicle id="L2-AV-58" type="L2-AV-" depart="487.20">
        <route edges="top-approaching closed-lane remerging-lane left-exit"/>
    </vehicle>
    <vehicle id="L2-AV-59" type="L2-AV-" depart="495.60">
        <route edges="top-approaching closed-lane remerging-lane left-exit"/>
    </vehicle>
    <vehicle id="L2-AV-60" type="L2-AV-" depart="504.00">
        <route edges="bottom-approaching closed-lane remerging-lane left-exit"/>
    </vehicle>
    <vehicle id="L2-AV-61" type="L2-AV-" depart="512.40">
        <route edges="bottom-approaching closed-lane remerging-lane left-exit"/>
    </vehicle>
    <vehicle id="L2-AV-64" type="L2-AV-" depart="537.60">
        <route edges="bottom-approaching closed-lane remerging-lane left-exit"/>
    </vehicle>
    <vehicle id="L2-AV-66" type="L2-AV-" depart="554.40">
        <route edges="bottom-approaching top-exit"/>
    </vehicle>
    <vehicle id="L2-AV-68" type="L2-AV-" depart="571.20">
        <route edges="top-approaching right-exit"/>
    </vehicle>
    <vehicle id="L2-AV-69" type="L2-AV-" depart="579.60">
        <route edges="top-approaching closed-lane remerging-lane left-exit"/>
    </vehicle>
    <vehicle id="L2-AV-70" type="L2-AV-" depart="588.00">
        <route edges="top-approaching right-exit"/>
    </vehicle>
    <vehicle id="L2-AV-71" type="L2-AV-" depart="596.40">
        <route edges="top-approaching right-exit"/>
    </vehicle>
    <vehicle id="L2-AV-72" type="L2-AV-Right-" depart="604.80">
        <route edges="left-long-approaching preparation left-short-approaching bottom-exit"/>
    </vehicle>
    <vehicle id="L2-AV-73" type="L2-AV-" depart="613.20">
        <route edges="bottom-approaching top-exit"/>
    </vehicle>
    <vehicle id="L2-AV-75" type="L2-AV-" depart="630.00">
        <route edges="left-long-approaching preparation left-short-approaching right-exit"/>
    </vehicle>
    <vehicle id="L2-AV-76" type="L2-AV-" depart="638.40">
        <route edges="top-approaching right-exit"/>
    </vehicle>
    <vehicle id="L2-AV-77" type="L2-AV-" depart="646.80">
        <route edges="top-approaching right-exit"/>
    </vehicle>
    <vehicle id="L2-AV-79" type="L2-AV-Left-" depart="663.60">
        <route edges="left-long-approaching preparation"/>
    </vehicle>
    <vehicle id="L2-AV-80" type="L2-AV-" depart="672.00">
        <route edges="top-approaching bottom-exit"/>
    </vehicle>
    <vehicle id="L2-AV-82" type="L2-AV-" depart="688.80">
        <route edges="right-approaching bottom-exit"/>
    </vehicle>
    <vehicle id="L2-AV-83" type="L2-AV-" depart="697.20">
        <route edges="top-approaching bottom-exit"/>
    </vehicle>
    <vehicle id="L2-AV-84" type="L2-AV-" depart="705.60">
        <route edges="top-approaching right-exit"/>
    </vehicle>
    <vehicle id="L2-AV-87" type="L2-AV-" depart="730.80">
        <route edges="right-approaching top-exit"/>
    </vehicle>
    <vehicle id="L2-AV-89" type="L2-AV-" depart="747.60">
        <route edges="top-approaching bottom-exit"/>
    </vehicle>
    <vehicle id="L2-AV-90" type="L2-AV-" depart="756.00">
        <route edges="top-approaching bottom-exit"/>
    </vehicle>
    <vehicle id="L2-AV-92" type="L2-AV-" depart="772.80">
        <route edges="top-approaching right-exit"/>
    </vehicle>
    <vehicle id="L2-AV-93" type="L2-AV-" depart="781.20">
        <route edges="top-approaching bottom-exit"/>
    </vehicle>
    <vehicle id="L2-AV-94" type="L2-AV-" depart="789.60">
        <route edges="right-approaching closed-lane remerging-lane left-exit"/>
    </vehicle>
    <vehicle id="L2-AV-96" type="L2-AV-" depart="806.40">
        <route edges="left-long-approaching preparation left-short-approaching right-exit"/>
    </vehicle>
    <vehicle id="L2-AV-98" type="L2-AV-" depart="823.20">
        <route edges="right-approaching closed-lane remerging-lane left-exit"/>
    </vehicle>
    <vehicle id="L2-AV-99" type="L2-AV-" depart="831.60">
        <route edges="top-approaching right-exit"/>
    </vehicle>
    <vehicle id="L2-AV-100" type="L2-AV-" depart="840.00">
        <route edges="bottom-approaching closed-lane remerging-lane left-exit"/>
    </vehicle>
    <vehicle id="L2-AV-101" type="L2-AV-" depart="848.40">
        <route edges="top-approaching right-exit"/>
    </vehicle>
    <vehicle id="L2-AV-102" type="L2-AV-" depart="856.80">
        <route edges="bottom-approaching top-exit"/>
    </vehicle>
    <vehicle id="L2-AV-103" type="L2-AV-" depart="865.20">
        <route edges="top-approaching bottom-exit"/>
    </vehicle>
    <vehicle id="L2-AV-104" type="L2-AV-" depart="873.60">
        <route edges="right-approaching closed-lane remerging-lane left-exit"/>
    </vehicle>
    <vehicle id="L2-AV-105" type="L2-AV-" depart="882.00">
        <route edges="top-approaching closed-lane remerging-lane left-exit"/>
    </vehicle>
    <vehicle id="L2-AV-106" type="L2-AV-" depart="890.40">
        <route edges="bottom-approaching closed-lane remerging-lane left-exit"/>
    </vehicle>
    <vehicle id="L2-AV-107" type="L2-AV-" depart="898.80">
        <route edges="top-approaching bottom-exit"/>
    </vehicle>
    <vehicle id="L2-AV-108" type="L2-AV-" depart="907.20">
        <route edges="bottom-approaching right-exit"/>
    </vehicle>
    <vehicle id="L2-AV-109" type="L2-AV-" depart="915.60">
        <route edges="top-approaching right-exit"/>
    </vehicle>
    <vehicle id="L2-AV-110" type="L2-AV-Left-" depart="924.00">
        <route edges="left-long-approaching preparation"/>
    </vehicle>
    <vehicle id="L2-AV-111" type="L2-AV-" depart="932.40">
        <route edges="top-approaching bottom-exit"/>
    </vehicle>
    <vehicle id="L2-AV-112" type="L2-AV-" depart="940.80">
        <route edges="top-approaching bottom-exit"/>
    </vehicle>
    <vehicle id="L2-AV-113" type="L2-AV-Left-" depart="949.20">
        <route edges="left-long-approaching preparation"/>
    </vehicle>
    <vehicle id="L2-AV-114" type="L2-AV-Left-" depart="957.60">
        <route edges="left-long-approaching preparation"/>
    </vehicle>
    <vehicle id="L2-AV-115" type="L2-AV-" depart="966.00">
        <route edges="bottom-approaching top-exit"/>
    </vehicle>
    <vehicle id="L2-AV-118" type="L2-AV-" depart="991.20">
        <route edges="right-approaching top-exit"/>
    </vehicle>
    <vehicle id="L2-AV-119" type="L2-AV-" depart="999.60">
        <route edges="right-approaching bottom-exit"/>
    </vehicle>
    <vehicle id="L2-AV-120" type="L2-AV-" depart="1008.00">
        <route edges="left-long-approaching preparation left-short-approaching right-exit"/>
    </vehicle>
    <vehicle id="L2-AV-121" type="L2-AV-" depart="1016.40">
        <route edges="left-long-approaching preparation left-short-approaching right-exit"/>
    </vehicle>
    <vehicle id="L2-AV-122" type="L2-AV-Right-" depart="1024.80">
        <route edges="left-long-approaching preparation left-short-approaching bottom-exit"/>
    </vehicle>
    <vehicle id="L2-AV-123" type="L2-AV-" depart="1033.20">
        <route edges="bottom-approaching top-exit"/>
    </vehicle>
    <vehicle id="L2-AV-124" type="L2-AV-Left-" depart="1041.60">
        <route edges="left-long-approaching preparation"/>
    </vehicle>
    <vehicle id="L2-AV-125" type="L2-AV-" depart="1050.00">
        <route edges="top-approaching right-exit"/>
    </vehicle>
    <vehicle id="L2-AV-127" type="L2-AV-Left-" depart="1066.80">
        <route edges="left-long-approaching preparation"/>
    </vehicle>
    <vehicle id="L2-AV-128" type="L2-AV-Left-" depart="1075.20">
        <route edges="left-long-approaching preparation"/>
    </vehicle>
    <vehicle id="L2-AV-129" type="L2-AV-Left-" depart="1083.60">
        <route edges="left-long-approaching preparation"/>
    </vehicle>
    <vehicle id="L2-AV-130" type="L2-AV-" depart="1092.00">
        <route edges="top-approaching right-exit"/>
    </vehicle>
    <vehicle id="L2-AV-131" type="L2-AV-Right-" depart="1100.40">
        <route edges="left-long-approaching preparation left-short-approaching bottom-exit"/>
    </vehicle>
    <vehicle id="L2-AV-132" type="L2-AV-" depart="1108.80">
        <route edges="top-approaching closed-lane remerging-lane left-exit"/>
    </vehicle>
    <vehicle id="L2-AV-133" type="L2-AV-" depart="1117.20">
        <route edges="right-approaching bottom-exit"/>
    </vehicle>
    <vehicle id="L2-AV-135" type="L2-AV-" depart="1134.00">
        <route edges="top-approaching bottom-exit"/>
    </vehicle>
    <vehicle id="L2-AV-136" type="L2-AV-" depart="1142.40">
        <route edges="top-approaching closed-lane remerging-lane left-exit"/>
    </vehicle>
    <vehicle id="L2-AV-137" type="L2-AV-" depart="1150.80">
        <route edges="right-approaching closed-lane remerging-lane left-exit"/>
    </vehicle>
    <vehicle id="L2-AV-138" type="L2-AV-" depart="1159.20">
        <route edges="right-approaching bottom-exit"/>
    </vehicle>
    <vehicle id="L2-AV-139" type="L2-AV-Left-" depart="1167.60">
        <route edges="left-long-approaching preparation"/>
    </vehicle>
    <vehicle id="L2-AV-140" type="L2-AV-" depart="1176.00">
        <route edges="bottom-approaching right-exit"/>
    </vehicle>
    <vehicle id="L2-AV-145" type="L2-AV-" depart="1218.00">
        <route edges="top-approaching bottom-exit"/>
    </vehicle>
    <vehicle id="L2-AV-146" type="L2-AV-" depart="1226.40">
        <route edges="right-approaching closed-lane remerging-lane left-exit"/>
    </vehicle>
    <vehicle id="L2-AV-147" type="L2-AV-" depart="1234.80">
        <route edges="right-approaching top-exit"/>
    </vehicle>
    <vehicle id="L2-AV-149" type="L2-AV-" depart="1251.60">
        <route edges="bottom-approaching right-exit"/>
    </vehicle>
    <vehicle id="L2-AV-151" type="L2-AV-" depart="1268.40">
        <route edges="right-approaching top-exit"/>
    </vehicle>
    <vehicle id="L2-AV-152" type="L2-AV-Left-" depart="1276.80">
        <route edges="left-long-approaching preparation"/>
    </vehicle>
    <vehicle id="L2-AV-153" type="L2-AV-" depart="1285.20">
        <route edges="left-long-approaching preparation left-short-approaching right-exit"/>
    </vehicle>
    <vehicle id="L2-AV-154" type="L2-AV-" depart="1293.60">
        <route edges="top-approaching right-exit"/>
    </vehicle>
    <vehicle id="L2-AV-155" type="L2-AV-Right-" depart="1302.00">
        <route edges="left-long-approaching preparation left-short-approaching bottom-exit"/>
    </vehicle>
    <vehicle id="L2-AV-156" type="L2-AV-" depart="1310.40">
        <route edges="left-long-approaching preparation left-short-approaching right-exit"/>
    </vehicle>
    <vehicle id="L2-AV-159" type="L2-AV-" depart="1335.60">
        <route edges="top-approaching closed-lane remerging-lane left-exit"/>
    </vehicle>
    <vehicle id="L2-AV-160" type="L2-AV-Right-" depart="1344.00">
        <route edges="left-long-approaching preparation left-short-approaching bottom-exit"/>
    </vehicle>
    <vehicle id="L2-AV-161" type="L2-AV-" depart="1352.40">
        <route edges="bottom-approaching right-exit"/>
    </vehicle>
    <vehicle id="L2-AV-163" type="L2-AV-Left-" depart="1369.20">
        <route edges="left-long-approaching preparation"/>
    </vehicle>
    <vehicle id="L2-AV-164" type="L2-AV-" depart="1377.60">
        <route edges="right-approaching bottom-exit"/>
    </vehicle>
    <vehicle id="L2-AV-165" type="L2-AV-" depart="1386.00">
        <route edges="bottom-approaching top-exit"/>
    </vehicle>
    <vehicle id="L2-AV-167" type="L2-AV-" depart="1402.80">
        <route edges="right-approaching closed-lane remerging-lane left-exit"/>
    </vehicle>
    <vehicle id="L2-AV-168" type="L2-AV-" depart="1411.20">
        <route edges="bottom-approaching closed-lane remerging-lane left-exit"/>
    </vehicle>
    <vehicle id="L2-AV-169" type="L2-AV-" depart="1419.60">
        <route edges="bottom-approaching top-exit"/>
    </vehicle>
    <vehicle id="L2-AV-172" type="L2-AV-Left-" depart="1444.80">
        <route edges="left-long-approaching preparation"/>
    </vehicle>
    <vehicle id="L2-AV-173" type="L2-AV-" depart="1453.20">
        <route edges="bottom-approaching top-exit"/>
    </vehicle>
    <vehicle id="L2-AV-175" type="L2-AV-" depart="1470.00">
        <route edges="top-approaching closed-lane remerging-lane left-exit"/>
    </vehicle>
    <vehicle id="L2-AV-176" type="L2-AV-" depart="1478.40">
        <route edges="right-approaching bottom-exit"/>
    </vehicle>
    <vehicle id="L2-AV-178" type="L2-AV-Right-" depart="1495.20">
        <route edges="left-long-approaching preparation left-short-approaching bottom-exit"/>
    </vehicle>
    <vehicle id="L2-AV-179" type="L2-AV-" depart="1503.60">
        <route edges="bottom-approaching top-exit"/>
    </vehicle>
    <vehicle id="L2-AV-180" type="L2-AV-Left-" depart="1512.00">
        <route edges="left-long-approaching preparation"/>
    </vehicle>
    <vehicle id="L2-AV-182" type="L2-AV-" depart="1528.80">
        <route edges="right-approaching top-exit"/>
    </vehicle>
    <vehicle id="L2-AV-183" type="L2-AV-" depart="1537.20">
        <route edges="top-approaching right-exit"/>
    </vehicle>
    <vehicle id="L2-AV-186" type="L2-AV-Right-" depart="1562.40">
        <route edges="left-long-approaching preparation left-short-approaching bottom-exit"/>
    </vehicle>
    <vehicle id="L2-AV-187" type="L2-AV-" depart="1570.80">
        <route edges="top-approaching closed-lane remerging-lane left-exit"/>
    </vehicle>
    <vehicle id="L2-AV-189" type="L2-AV-" depart="1587.60">
        <route edges="top-approaching closed-lane remerging-lane left-exit"/>
    </vehicle>
    <vehicle id="L2-AV-190" type="L2-AV-" depart="1596.00">
        <route edges="left-long-approaching preparation left-short-approaching right-exit"/>
    </vehicle>
    <vehicle id="L2-AV-191" type="L2-AV-" depart="1604.40">
        <route edges="top-approaching closed-lane remerging-lane left-exit"/>
    </vehicle>
    <vehicle id="L2-AV-193" type="L2-AV-" depart="1621.20">
        <route edges="bottom-approaching top-exit"/>
    </vehicle>
    <vehicle id="L2-AV-194" type="L2-AV-" depart="1629.60">
        <route edges="bottom-approaching top-exit"/>
    </vehicle>
    <vehicle id="L2-AV-197" type="L2-AV-" depart="1654.80">
        <route edges="bottom-approaching right-exit"/>
    </vehicle>
    <vehicle id="L2-AV-198" type="L2-AV-" depart="1663.20">
        <route edges="left-long-approaching preparation left-short-approaching right-exit"/>
    </vehicle>
    <vehicle id="L2-AV-199" type="L2-AV-" depart="1671.60">
        <route edges="bottom-approaching top-exit"/>
    </vehicle>
    <vehicle id="L2-AV-200" type="L2-AV-" depart="1680.00">
        <route edges="top-approaching right-exit"/>
    </vehicle>
    <vehicle id="L2-AV-202" type="L2-AV-Left-" depart="1696.80">
        <route edges="left-long-approaching preparation"/>
    </vehicle>
    <vehicle id="L2-AV-203" type="L2-AV-" depart="1705.20">
        <route edges="top-approaching right-exit"/>
    </vehicle>
    <vehicle id="L2-AV-204" type="L2-AV-" depart="1713.60">
        <route edges="bottom-approaching right-exit"/>
    </vehicle>
    <vehicle id="L2-AV-205" type="L2-AV-" depart="1722.00">
        <route edges="top-approaching closed-lane remerging-lane left-exit"/>
    </vehicle>
    <vehicle id="L2-AV-206" type="L2-AV-" depart="1730.40">
        <route edges="right-approaching top-exit"/>
    </vehicle>
    <vehicle id="L2-AV-207" type="L2-AV-" depart="1738.80">
        <route edges="right-approaching bottom-exit"/>
    </vehicle>
    <vehicle id="L2-AV-208" type="L2-AV-" depart="1747.20">
        <route edges="right-approaching closed-lane remerging-lane left-exit"/>
    </vehicle>
    <vehicle id="L2-AV-209" type="L2-AV-" depart="1755.60">
        <route edges="top-approaching right-exit"/>
    </vehicle>
    <vehicle id="L2-AV-210" type="L2-AV-Left-" depart="1764.00">
        <route edges="left-long-approaching preparation"/>
    </vehicle>
    <vehicle id="L2-AV-211" type="L2-AV-" depart="1772.40">
        <route edges="right-approaching closed-lane remerging-lane left-exit"/>
    </vehicle>
    <vehicle id="L2-AV-216" type="L2-AV-" depart="1814.40">
        <route edges="top-approaching closed-lane remerging-lane left-exit"/>
    </vehicle>
    <vehicle id="L2-AV-217" type="L2-AV-" depart="1822.80">
        <route edges="bottom-approaching right-exit"/>
    </vehicle>
    <vehicle id="L2-AV-218" type="L2-AV-" depart="1831.20">
        <route edges="left-long-approaching preparation left-short-approaching right-exit"/>
    </vehicle>
    <vehicle id="L2-AV-219" type="L2-AV-" depart="1839.60">
        <route edges="right-approaching closed-lane remerging-lane left-exit"/>
    </vehicle>
    <vehicle id="L2-AV-222" type="L2-AV-" depart="1864.80">
        <route edges="right-approaching bottom-exit"/>
    </vehicle>
    <vehicle id="L2-AV-224" type="L2-AV-" depart="1881.60">
        <route edges="right-approaching bottom-exit"/>
    </vehicle>
    <vehicle id="L2-AV-225" type="L2-AV-" depart="1890.00">
        <route edges="top-approaching right-exit"/>
    </vehicle>
    <vehicle id="L2-AV-226" type="L2-AV-" depart="1898.40">
        <route edges="right-approaching bottom-exit"/>
    </vehicle>
    <vehicle id="L2-AV-227" type="L2-AV-" depart="1906.80">
        <route edges="right-approaching bottom-exit"/>
    </vehicle>
    <vehicle id="L2-AV-228" type="L2-AV-Right-" depart="1915.20">
        <route edges="left-long-approaching preparation left-short-approaching bottom-exit"/>
    </vehicle>
    <vehicle id="L2-AV-229" type="L2-AV-Left-" depart="1923.60">
        <route edges="left-long-approaching preparation"/>
    </vehicle>
    <vehicle id="L2-AV-230" type="L2-AV-" depart="1932.00">
        <route edges="right-approaching top-exit"/>
    </vehicle>
    <vehicle id="L2-AV-232" type="L2-AV-" depart="1948.80">
        <route edges="right-approaching bottom-exit"/>
    </vehicle>
    <vehicle id="L2-AV-233" type="L2-AV-Left-" depart="1957.20">
        <route edges="left-long-approaching preparation"/>
    </vehicle>
    <vehicle id="L2-AV-235" type="L2-AV-" depart="1974.00">
        <route edges="left-long-approaching preparation left-short-approaching right-exit"/>
    </vehicle>
    <vehicle id="L2-AV-236" type="L2-AV-" depart="1982.40">
        <route edges="top-approaching right-exit"/>
    </vehicle>
    <vehicle id="L2-AV-237" type="L2-AV-Right-" depart="1990.80">
        <route edges="left-long-approaching preparation left-short-approaching bottom-exit"/>
    </vehicle>
    <vehicle id="L2-AV-238" type="L2-AV-" depart="1999.20">
        <route edges="bottom-approaching top-exit"/>
    </vehicle>
    <vehicle id="L2-AV-239" type="L2-AV-" depart="2007.60">
        <route edges="top-approaching closed-lane remerging-lane left-exit"/>
    </vehicle>
    <vehicle id="L2-AV-240" type="L2-AV-" depart="2016.00">
        <route edges="top-approaching closed-lane remerging-lane left-exit"/>
    </vehicle>
    <vehicle id="L2-AV-241" type="L2-AV-" depart="2024.40">
        <route edges="right-approaching top-exit"/>
    </vehicle>
    <vehicle id="L2-AV-242" type="L2-AV-" depart="2032.80">
        <route edges="left-long-approaching preparation left-short-approaching right-exit"/>
    </vehicle>
    <vehicle id="L2-AV-243" type="L2-AV-" depart="2041.20">
        <route edges="left-long-approaching preparation left-short-approaching right-exit"/>
    </vehicle>
    <vehicle id="L2-AV-244" type="L2-AV-" depart="2049.60">
        <route edges="bottom-approaching closed-lane remerging-lane left-exit"/>
    </vehicle>
    <vehicle id="L2-AV-245" type="L2-AV-Left-" depart="2058.00">
        <route edges="left-long-approaching preparation"/>
    </vehicle>
    <vehicle id="L2-AV-246" type="L2-AV-" depart="2066.40">
        <route edges="bottom-approaching top-exit"/>
    </vehicle>
    <vehicle id="L2-AV-247" type="L2-AV-" depart="2074.80">
        <route edges="bottom-approaching top-exit"/>
    </vehicle>
    <vehicle id="L2-AV-249" type="L2-AV-" depart="2091.60">
        <route edges="bottom-approaching top-exit"/>
    </vehicle>
    <vehicle id="L2-AV-250" type="L2-AV-" depart="2100.00">
        <route edges="right-approaching top-exit"/>
    </vehicle>
    <vehicle id="L2-AV-251" type="L2-AV-Right-" depart="2108.40">
        <route edges="left-long-approaching preparation left-short-approaching bottom-exit"/>
    </vehicle>
    <vehicle id="L2-AV-253" type="L2-AV-" depart="2125.20">
        <route edges="top-approaching bottom-exit"/>
    </vehicle>
    <vehicle id="L2-AV-254" type="L2-AV-" depart="2133.60">
        <route edges="bottom-approaching top-exit"/>
    </vehicle>
    <vehicle id="L2-AV-255" type="L2-AV-" depart="2142.00">
        <route edges="bottom-approaching top-exit"/>
    </vehicle>
    <vehicle id="L2-AV-256" type="L2-AV-" depart="2150.40">
        <route edges="left-long-approaching preparation left-short-approaching right-exit"/>
    </vehicle>
    <vehicle id="L2-AV-257" type="L2-AV-" depart="2158.80">
        <route edges="right-approaching top-exit"/>
    </vehicle>
    <vehicle id="L2-AV-258" type="L2-AV-" depart="2167.20">
        <route edges="bottom-approaching top-exit"/>
    </vehicle>
    <vehicle id="L2-AV-259" type="L2-AV-" depart="2175.60">
        <route edges="bottom-approaching right-exit"/>
    </vehicle>
    <vehicle id="L2-AV-260" type="L2-AV-" depart="2184.00">
        <route edges="bottom-approaching top-exit"/>
    </vehicle>
    <vehicle id="L2-AV-262" type="L2-AV-" depart="2200.80">
        <route edges="bottom-approaching closed-lane remerging-lane left-exit"/>
    </vehicle>
    <vehicle id="L2-AV-263" type="L2-AV-Left-" depart="2209.20">
        <route edges="left-long-approaching preparation"/>
    </vehicle>
    <vehicle id="L2-AV-264" type="L2-AV-" depart="2217.60">
        <route edges="right-approaching closed-lane remerging-lane left-exit"/>
    </vehicle>
    <vehicle id="L2-AV-265" type="L2-AV-" depart="2226.00">
        <route edges="top-approaching bottom-exit"/>
    </vehicle>
    <vehicle id="L2-AV-266" type="L2-AV-" depart="2234.40">
        <route edges="bottom-approaching top-exit"/>
    </vehicle>
    <vehicle id="L2-AV-267" type="L2-AV-" depart="2242.80">
        <route edges="top-approaching right-exit"/>
    </vehicle>
    <vehicle id="L2-AV-268" type="L2-AV-" depart="2251.20">
        <route edges="top-approaching bottom-exit"/>
    </vehicle>
    <vehicle id="L2-AV-269" type="L2-AV-" depart="2259.60">
        <route edges="top-approaching right-exit"/>