<?xml version="1.0" ?><!-- generated on 03/22/21 00:29:36 by Eclipse SUMO duarouter Version 1.8.0
<configuration xmlns:xsi="http://www.w3.org/2001/XMLSchema-instance" xsi:noNamespaceSchemaLocation="http://sumo.dlr.de/xsd/duarouterConfiguration.xsd">

    <input>
        <net-file value="Roadworks/RoadworksIntersection.net.xml"/>
        <route-files value="trips.trips.xml"/>
    </input>

    <output>
        <output-file value="Roadworks/RealTMSPenetration3/Route-Files/L2-AV-Route.rou.xml"/>
        <alternatives-output value="Roadworks/RealTMSPenetration3/Route-Files/L2-AV-Route.rou.alt.xml"/>
    </output>

    <time>
        <begin value="0"/>
        <end value="3600"/>
    </time>

    <report>
        <no-warnings value="true"/>
        <ignore-errors value="true"/>
        <no-step-log value="true"/>
    </report>

</configuration>
--><routes xmlns:xsi="http://www.w3.org/2001/XMLSchema-instance" xsi:noNamespaceSchemaLocation="http://sumo.dlr.de/xsd/routes_file.xsd">
    <vehicle id="L2-AV-2" type="L2-AV-" depart="14.00">
        <route edges="right-approaching closed-lane remerging-lane left-exit"/>
    </vehicle>
    <vehicle id="L2-AV-3" type="L2-AV-" depart="21.00">
        <route edges="top-approaching closed-lane remerging-lane left-exit"/>
    </vehicle>
    <vehicle id="L2-AV-4" type="L2-AV-" depart="28.00">
        <route edges="left-long-approaching preparation left-short-approaching right-exit"/>
    </vehicle>
    <vehicle id="L2-AV-5" type="L2-AV-" depart="35.00">
        <route edges="top-approaching right-exit"/>
    </vehicle>
    <vehicle id="L2-AV-6" type="L2-AV-Left-" depart="42.00">
        <route edges="left-long-approaching preparation"/>
    </vehicle>
    <vehicle id="L2-AV-7" type="L2-AV-" depart="49.00">
        <route edges="right-approaching closed-lane remerging-lane left-exit"/>
    </vehicle>
    <vehicle id="L2-AV-10" type="L2-AV-" depart="70.00">
        <route edges="left-long-approaching preparation left-short-approaching right-exit"/>
    </vehicle>
    <vehicle id="L2-AV-11" type="L2-AV-" depart="77.00">
        <route edges="top-approaching right-exit"/>
    </vehicle>
    <vehicle id="L2-AV-12" type="L2-AV-Right-" depart="84.00">
        <route edges="left-long-approaching preparation left-short-approaching bottom-exit"/>
    </vehicle>
    <vehicle id="L2-AV-13" type="L2-AV-" depart="91.00">
        <route edges="left-long-approaching preparation left-short-approaching right-exit"/>
    </vehicle>
    <vehicle id="L2-AV-15" type="L2-AV-Left-" depart="105.00">
        <route edges="left-long-approaching preparation"/>
    </vehicle>
    <vehicle id="L2-AV-16" type="L2-AV-Left-" depart="112.00">
        <route edges="left-long-approaching preparation"/>
    </vehicle>
    <vehicle id="L2-AV-17" type="L2-AV-" depart="119.00">
        <route edges="right-approaching bottom-exit"/>
    </vehicle>
    <vehicle id="L2-AV-18" type="L2-AV-" depart="126.00">
        <route edges="right-approaching closed-lane remerging-lane left-exit"/>
    </vehicle>
    <vehicle id="L2-AV-19" type="L2-AV-" depart="133.00">
        <route edges="top-approaching right-exit"/>
    </vehicle>
    <vehicle id="L2-AV-20" type="L2-AV-" depart="140.00">
        <route edges="bottom-approaching closed-lane remerging-lane left-exit"/>
    </vehicle>
    <vehicle id="L2-AV-21" type="L2-AV-" depart="147.00">
        <route edges="top-approaching bottom-exit"/>
    </vehicle>
    <vehicle id="L2-AV-22" type="L2-AV-Left-" depart="154.00">
        <route edges="left-long-approaching preparation"/>
    </vehicle>
    <vehicle id="L2-AV-23" type="L2-AV-" depart="161.00">
        <route edges="bottom-approaching right-exit"/>
    </vehicle>
    <vehicle id="L2-AV-24" type="L2-AV-" depart="168.00">
        <route edges="bottom-approaching top-exit"/>
    </vehicle>
    <vehicle id="L2-AV-25" type="L2-AV-" depart="175.00">
        <route edges="top-approaching closed-lane remerging-lane left-exit"/>
    </vehicle>
    <vehicle id="L2-AV-26" type="L2-AV-" depart="182.00">
        <route edges="bottom-approaching closed-lane remerging-lane left-exit"/>
    </vehicle>
    <vehicle id="L2-AV-27" type="L2-AV-" depart="189.00">
        <route edges="right-approaching top-exit"/>
    </vehicle>
    <vehicle id="L2-AV-28" type="L2-AV-" depart="196.00">
        <route edges="bottom-approaching right-exit"/>
    </vehicle>
    <vehicle id="L2-AV-30" type="L2-AV-" depart="210.00">
        <route edges="top-approaching right-exit"/>
    </vehicle>
    <vehicle id="L2-AV-31" type="L2-AV-" depart="217.00">
        <route edges="top-approaching right-exit"/>
    </vehicle>
    <vehicle id="L2-AV-32" type="L2-AV-" depart="224.00">
        <route edges="right-approaching closed-lane remerging-lane left-exit"/>
    </vehicle>
    <vehicle id="L2-AV-33" type="L2-AV-" depart="231.00">
        <route edges="right-approaching closed-lane remerging-lane left-exit"/>
    </vehicle>
    <vehicle id="L2-AV-34" type="L2-AV-" depart="238.00">
        <route edges="right-approaching closed-lane remerging-lane left-exit"/>
    </vehicle>
    <vehicle id="L2-AV-37" type="L2-AV-Right-" depart="259.00">
        <route edges="left-long-approaching preparation left-short-approaching bottom-exit"/>
    </vehicle>
    <vehicle id="L2-AV-41" type="L2-AV-" depart="287.00">
        <route edges="right-approaching closed-lane remerging-lane left-exit"/>
    </vehicle>
    <vehicle id="L2-AV-42" type="L2-AV-" depart="294.00">
        <route edges="right-approaching closed-lane remerging-lane left-exit"/>
    </vehicle>
    <vehicle id="L2-AV-44" type="L2-AV-" depart="308.00">
        <route edges="top-approaching right-exit"/>
    </vehicle>
    <vehicle id="L2-AV-45" type="L2-AV-" depart="315.00">
        <route edges="top-approaching right-exit"/>
    </vehicle>
    <vehicle id="L2-AV-46" type="L2-AV-" depart="322.00">
        <route edges="left-long-approaching preparation left-short-approaching right-exit"/>
    </vehicle>
    <vehicle id="L2-AV-48" type="L2-AV-" depart="336.00">
        <route edges="top-approaching bottom-exit"/>
    </vehicle>
    <vehicle id="L2-AV-49" type="L2-AV-" depart="343.00">
        <route edges="right-approaching closed-lane remerging-lane left-exit"/>
    </vehicle>
    <vehicle id="L2-AV-50" type="L2-AV-" depart="350.00">
        <route edges="right-approaching top-exit"/>
    </vehicle>
    <vehicle id="L2-AV-51" type="L2-AV-" depart="357.00">
        <route edges="bottom-approaching right-exit"/>
    </vehicle>
    <vehicle id="L2-AV-53" type="L2-AV-" depart="371.00">
        <route edges="top-approaching closed-lane remerging-lane left-exit"/>
    </vehicle>
    <vehicle id="L2-AV-54" type="L2-AV-" depart="378.00">
        <route edges="top-approaching bottom-exit"/>
    </vehicle>
    <vehicle id="L2-AV-55" type="L2-AV-" depart="385.00">
        <route edges="bottom-approaching right-exit"/>
    </vehicle>
    <vehicle id="L2-AV-56" type="L2-AV-" depart="392.00">
        <route edges="bottom-approaching right-exit"/>
    </vehicle>
    <vehicle id="L2-AV-57" type="L2-AV-" depart="399.00">
        <route edges="top-approaching right-exit"/>
    </vehicle>
    <vehicle id="L2-AV-58" type="L2-AV-" depart="406.00">
        <route edges="right-approaching bottom-exit"/>
    </vehicle>
    <vehicle id="L2-AV-60" type="L2-AV-" depart="420.00">
        <route edges="right-approaching closed-lane remerging-lane left-exit"/>
    </vehicle>
    <vehicle id="L2-AV-61" type="L2-AV-Left-" depart="427.00">
        <route edges="left-long-approaching preparation"/>
    </vehicle>
    <vehicle id="L2-AV-63" type="L2-AV-" depart="441.00">
        <route edges="top-approaching bottom-exit"/>
    </vehicle>
    <vehicle id="L2-AV-66" type="L2-AV-" depart="462.00">
        <route edges="bottom-approaching closed-lane remerging-lane left-exit"/>
    </vehicle>
    <vehicle id="L2-AV-67" type="L2-AV-" depart="469.00">
        <route edges="bottom-approaching closed-lane remerging-lane left-exit"/>
    </vehicle>
    <vehicle id="L2-AV-68" type="L2-AV-" depart="476.00">
        <route edges="bottom-approaching right-exit"/>
    </vehicle>
    <vehicle id="L2-AV-69" type="L2-AV-Right-" depart="483.00">
        <route edges="left-long-approaching preparation left-short-approaching bottom-exit"/>
    </vehicle>
    <vehicle id="L2-AV-70" type="L2-AV-Right-" depart="490.00">
        <route edges="left-long-approaching preparation left-short-approaching bottom-exit"/>
    </vehicle>
    <vehicle id="L2-AV-71" type="L2-AV-" depart="497.00">
        <route edges="bottom-approaching top-exit"/>
    </vehicle>
    <vehicle id="L2-AV-72" type="L2-AV-" depart="504.00">
        <route edges="bottom-approaching closed-lane remerging-lane left-exit"/>
    </vehicle>
    <vehicle id="L2-AV-73" type="L2-AV-" depart="511.00">
        <route edges="right-approaching top-exit"/>
    </vehicle>
    <vehicle id="L2-AV-74" type="L2-AV-" depart="518.00">
        <route edges="top-approaching bottom-exit"/>
    </vehicle>
    <vehicle id="L2-AV-75" type="L2-AV-" depart="525.00">
        <route edges="right-approaching top-exit"/>
    </vehicle>
    <vehicle id="L2-AV-76" type="L2-AV-" depart="532.00">
        <route edges="bottom-approaching right-exit"/>
    </vehicle>
    <vehicle id="L2-AV-77" type="L2-AV-" depart="539.00">
        <route edges="top-approaching closed-lane remerging-lane left-exit"/>
    </vehicle>
    <vehicle id="L2-AV-78" type="L2-AV-" depart="546.00">
        <route edges="left-long-approaching preparation left-short-approaching right-exit"/>
    </vehicle>
    <vehicle id="L2-AV-79" type="L2-AV-Right-" depart="553.00">
        <route edges="left-long-approaching preparation left-short-approaching bottom-exit"/>
    </vehicle>
    <vehicle id="L2-AV-83" type="L2-AV-" depart="581.00">
        <route edges="top-approaching closed-lane remerging-lane left-exit"/>
    </vehicle>
    <vehicle id="L2-AV-84" type="L2-AV-" depart="588.00">
        <route edges="right-approaching bottom-exit"/>
    </vehicle>
    <vehicle id="L2-AV-85" type="L2-AV-" depart="595.00">
        <route edges="right-approaching closed-lane remerging-lane left-exit"/>
    </vehicle>
    <vehicle id="L2-AV-86" type="L2-AV-" depart="602.00">
        <route edges="bottom-approaching closed-lane remerging-lane left-exit"/>
    </vehicle>
    <vehicle id="L2-AV-87" type="L2-AV-" depart="609.00">
        <route edges="bottom-approaching top-exit"/>
    </vehicle>
    <vehicle id="L2-AV-89" type="L2-AV-Left-" depart="623.00">
        <route edges="left-long-approaching preparation"/>
    </vehicle>
    <vehicle id="L2-AV-91" type="L2-AV-" depart="637.00">
        <route edges="right-approaching closed-lane remerging-lane left-exit"/>
    </vehicle>
    <vehicle id="L2-AV-92" type="L2-AV-" depart="644.00">
        <route edges="left-long-approaching preparation left-short-approaching right-exit"/>
    </vehicle>
    <vehicle id="L2-AV-94" type="L2-AV-Right-" depart="658.00">
        <route edges="left-long-approaching preparation left-short-approaching bottom-exit"/>
    </vehicle>
    <vehicle id="L2-AV-95" type="L2-AV-" depart="665.00">
        <route edges="right-approaching closed-lane remerging-lane left-exit"/>
    </vehicle>
    <vehicle id="L2-AV-96" type="L2-AV-" depart="672.00">
        <route edges="top-approaching right-exit"/>
    </vehicle>
    <vehicle id="L2-AV-98" type="L2-AV-" depart="686.00">
        <route edges="right-approaching closed-lane remerging-lane left-exit"/>
    </vehicle>
    <vehicle id="L2-AV-99" type="L2-AV-" depart="693.00">
        <route edges="right-approaching bottom-exit"/>
    </vehicle>
    <vehicle id="L2-AV-101" type="L2-AV-" depart="707.00">
        <route edges="bottom-approaching right-exit"/>
    </vehicle>
    <vehicle id="L2-AV-102" type="L2-AV-" depart="714.00">
        <route edges="left-long-approaching preparation left-short-approaching right-exit"/>
    </vehicle>
    <vehicle id="L2-AV-105" type="L2-AV-Left-" depart="735.00">
        <route edges="left-long-approaching preparation"/>
    </vehicle>
    <vehicle id="L2-AV-107" type="L2-AV-" depart="749.00">
        <route edges="bottom-approaching top-exit"/>
    </vehicle>
    <vehicle id="L2-AV-108" type="L2-AV-" depart="756.00">
        <route edges="right-approaching bottom-exit"/>
    </vehicle>
    <vehicle id="L2-AV-109" type="L2-AV-" depart="763.00">
        <route edges="right-approaching top-exit"/>
    </vehicle>
    <vehicle id="L2-AV-110" type="L2-AV-" depart="770.00">
        <route edges="left-long-approaching preparation left-short-approaching right-exit"/>
    </vehicle>
    <vehicle id="L2-AV-111" type="L2-AV-Right-" depart="777.00">
        <route edges="left-long-approaching preparation left-short-approaching bottom-exit"/>
    </vehicle>
    <vehicle id="L2-AV-112" type="L2-AV-" depart="784.00">
        <route edges="right-approaching bottom-exit"/>
    </vehicle>
    <vehicle id="L2-AV-113" type="L2-AV-" depart="791.00">
        <route edges="top-approaching right-exit"/>
    </vehicle>
    <vehicle id="L2-AV-115" type="L2-AV-" depart="805.00">
        <route edges="right-approaching top-exit"/>
    </vehicle>
    <vehicle id="L2-AV-116" type="L2-AV-Left-" depart="812.00">
        <route edges="left-long-approaching preparation"/>
    </vehicle>
    <vehicle id="L2-AV-117" type="L2-AV-" depart="819.00">
        <route edges="bottom-approaching top-exit"/>
    </vehicle>
    <vehicle id="L2-AV-118" type="L2-AV-Right-" depart="826.00">
        <route edges="left-long-approaching preparation left-short-approaching bottom-exit"/>
    </vehicle>
    <vehicle id="L2-AV-121" type="L2-AV-" depart="847.00">
        <route edges="bottom-approaching right-exit"/>
    </vehicle>
    <vehicle id="L2-AV-122" type="L2-AV-" depart="854.00">
        <route edges="right-approaching closed-lane remerging-lane left-exit"/>
    </vehicle>
    <vehicle id="L2-AV-123" type="L2-AV-" depart="861.00">
        <route edges="top-approaching closed-lane remerging-lane left-exit"/>
    </vehicle>
    <vehicle id="L2-AV-127" type="L2-AV-" depart="889.00">
        <route edges="top-approaching bottom-exit"/>
    </vehicle>
    <vehicle id="L2-AV-130" type="L2-AV-" depart="910.00">
        <route edges="top-approaching right-exit"/>
    </vehicle>
    <vehicle id="L2-AV-131" type="L2-AV-" depart="917.00">
        <route edges="left-long-approaching preparation left-short-approaching right-exit"/>
    </vehicle>
    <vehicle id="L2-AV-132" type="L2-AV-" depart="924.00">
        <route edges="bottom-approaching right-exit"/>
    </vehicle>
    <vehicle id="L2-AV-134" type="L2-AV-Left-" depart="938.00">
        <route edges="left-long-approaching preparation"/>
    </vehicle>
    <vehicle id="L2-AV-135" type="L2-AV-" depart="945.00">
        <route edges="right-approaching closed-lane remerging-lane left-exit"/>
    </vehicle>
    <vehicle id="L2-AV-136" type="L2-AV-" depart="952.00">
        <route edges="right-approaching bottom-exit"/>
    </vehicle>
    <vehicle id="L2-AV-137" type="L2-AV-" depart="959.00">
        <route edges="bottom-approaching top-exit"/>
    </vehicle>
    <vehicle id="L2-AV-139" type="L2-AV-" depart="973.00">
        <route edges="right-approaching closed-lane remerging-lane left-exit"/>
    </vehicle>
    <vehicle id="L2-AV-140" type="L2-AV-Right-" depart="980.00">
        <route edges="left-long-approaching preparation left-short-approaching bottom-exit"/>
    </vehicle>
    <vehicle id="L2-AV-142" type="L2-AV-" depart="994.00">
        <route edges="right-approaching bottom-exit"/>
    </vehicle>
    <vehicle id="L2-AV-144" type="L2-AV-Right-" depart="1008.00">
        <route edges="left-long-approaching preparation left-short-approaching bottom-exit"/>
    </vehicle>
    <vehicle id="L2-AV-145" type="L2-AV-" depart="1015.00">
        <route edges="top-approaching closed-lane remerging-lane left-exit"/>
    </vehicle>
    <vehicle id="L2-AV-148" type="L2-AV-" depart="1036.00">
        <route edges="right-approaching closed-lane remerging-lane left-exit"/>
    </vehicle>
    <vehicle id="L2-AV-149" type="L2-AV-" depart="1043.00">
        <route edges="left-long-approaching preparation left-short-approaching right-exit"/>
    </vehicle>
    <vehicle id="L2-AV-151" type="L2-AV-" depart="1057.00">
        <route edges="right-approaching closed-lane remerging-lane left-exit"/>
    </vehicle>
    <vehicle id="L2-AV-152" type="L2-AV-" depart="1064.00">
        <route edges="top-approaching right-exit"/>
    </vehicle>
    <vehicle id="L2-AV-154" type="L2-AV-" depart="1078.00">
        <route edges="right-approaching bottom-exit"/>
    </vehicle>
    <vehicle id="L2-AV-155" type="L2-AV-" depart="1085.00">
        <route edges="bottom-approaching closed-lane remerging-lane left-exit"/>
    </vehicle>
    <vehicle id="L2-AV-156" type="L2-AV-" depart="1092.00">
        <route edges="right-approaching closed-lane remerging-lane left-exit"/>
    </vehicle>
    <vehicle id="L2-AV-157" type="L2-AV-" depart="1099.00">
        <route edges="left-long-approaching preparation left-short-approaching right-exit"/>
    </vehicle>
    <vehicle id="L2-AV-158" type="L2-AV-" depart="1106.00">
        <route edges="right-approaching closed-lane remerging-lane left-exit"/>
    </vehicle>
    <vehicle id="L2-AV-159" type="L2-AV-Left-" depart="1113.00">
        <route edges="left-long-approaching preparation"/>
    </vehicle>
    <vehicle id="L2-AV-160" type="L2-AV-Left-" depart="1120.00">
        <route edges="left-long-approaching preparation"/>
    </vehicle>
    <vehicle id="L2-AV-162" type="L2-AV-" depart="1134.00">
        <route edges="bottom-approaching top-exit"/>
    </vehicle>
    <vehicle id="L2-AV-163" type="L2-AV-" depart="1141.00">
        <route edges="right-approaching top-exit"/>
    </vehicle>
    <vehicle id="L2-AV-164" type="L2-AV-" depart="1148.00">
        <route edges="left-long-approaching preparation left-short-approaching right-exit"/>
    </vehicle>
    <vehicle id="L2-AV-165" type="L2-AV-" depart="1155.00">
        <route edges="bottom-approaching closed-lane remerging-lane left-exit"/>
    </vehicle>
    <vehicle id="L2-AV-167" type="L2-AV-" depart="1169.00">
        <route edges="top-approaching bottom-exit"/>
    </vehicle>
    <vehicle id="L2-AV-169" type="L2-AV-" depart="1183.00">
        <route edges="left-long-approaching preparation left-short-approaching right-exit"/>
    </vehicle>
    <vehicle id="L2-AV-170" type="L2-AV-" depart="1190.00">
        <route edges="bottom-approaching top-exit"/>
    </vehicle>
    <vehicle id="L2-AV-171" type="L2-AV-" depart="1197.00">
        <route edges="top-approaching bottom-exit"/>
    </vehicle>
    <vehicle id="L2-AV-172" type="L2-AV-" depart="1204.00">
        <route edges="left-long-approaching preparation left-short-approaching right-exit"/>
    </vehicle>
    <vehicle id="L2-AV-173" type="L2-AV-" depart="1211.00">
        <route edges="top-approaching closed-lane remerging-lane left-exit"/>
    </vehicle>
    <vehicle id="L2-AV-174" type="L2-AV-" depart="1218.00">
        <route edges="top-approaching closed-lane remerging-lane left-exit"/>
    </vehicle>
    <vehicle id="L2-AV-175" type="L2-AV-" depart="1225.00">
        <route edges="left-long-approaching preparation"/>
    </vehicle>
    <vehicle id="L2-AV-176" type="L2-AV-" depart="1232.00">
        <route edges="right-approaching bottom-exit"/>
    </vehicle>
    <vehicle id="L2-AV-177" type="L2-AV-" depart="1239.00">
        <route edges="right-approaching bottom-exit"/>
    </vehicle>
    <vehicle id="L2-AV-178" type="L2-AV-Left-" depart="1246.00">
        <route edges="left-long-approaching preparation"/>
    </vehicle>
    <vehicle id="L2-AV-181" type="L2-AV-Left-" depart="1267.00">
        <route edges="left-long-approaching preparation"/>
    </vehicle>
    <vehicle id="L2-AV-182" type="L2-AV-" depart="1274.00">
        <route edges="top-approaching right-exit"/>
    </vehicle>
    <vehicle id="L2-AV-183" type="L2-AV-" depart="1281.00">
        <route edges="right-approaching top-exit"/>
    </vehicle>
    <vehicle id="L2-AV-185" type="L2-AV-" depart="1295.00">
        <route edges="top-approaching bottom-exit"/>
    </vehicle>
    <vehicle id="L2-AV-187" type="L2-AV-" depart="1309.00">
        <route edges="bottom-approaching top-exit"/>
    </vehicle>
    <vehicle id="L2-AV-188" type="L2-AV-Right-" depart="1316.00">
        <route edges="left-long-approaching preparation left-short-approaching bottom-exit"/>
    </vehicle>
    <vehicle id="L2-AV-189" type="L2-AV-" depart="1323.00">
        <route edges="bottom-approaching right-exit"/>
    </vehicle>
    <vehicle id="L2-AV-190" type="L2-AV-" depart="1330.00">
        <route edges="top-approaching right-exit"/>
    </vehicle>
    <vehicle id="L2-AV-194" type="L2-AV-" depart="1358.00">
        <route edges="top-approaching right-exit"/>
    </vehicle>
    <vehicle id="L2-AV-195" type="L2-AV-" depart="1365.00">
        <route edges="top-approaching bottom-exit"/>
    </vehicle>
    <vehicle id="L2-AV-197" type="L2-AV-" depart="1379.00">
        <route edges="top-approaching closed-lane remerging-lane left-exit"/>
    </vehicle>
    <vehicle id="L2-AV-198" type="L2-AV-" depart="1386.00">
        <route edges="top-approaching closed-lane remerging-lane left-exit"/>
    </vehicle>
    <vehicle id="L2-AV-199" type="L2-AV-" depart="1393.00">
        <route edges="right-approaching top-exit"/>
    </vehicle>
    <vehicle id="L2-AV-200" type="L2-AV-" depart="1400.00">
        <route edges="top-approaching right-exit"/>
    </vehicle>
    <vehicle id="L2-AV-202" type="L2-AV-" depart="1414.00">
        <route edges="right-approaching closed-lane remerging-lane left-exit"/>
    </vehicle>
    <vehicle id="L2-AV-203" type="L2-AV-" depart="1421.00">
        <route edges="bottom-approaching top-exit"/>
    </vehicle>
    <vehicle id="L2-AV-204" type="L2-AV-" depart="1428.00">
        <route edges="top-approaching closed-lane remerging-lane left-exit"/>
    </vehicle>
    <vehicle id="L2-AV-205" type="L2-AV-Left-" depart="1435.00">
        <route edges="left-long-approaching preparation"/>
    </vehicle>
    <vehicle id="L2-AV-206" type="L2-AV-" depart="1442.00">
        <route edges="bottom-approaching right-exit"/>
    </vehicle>
    <vehicle id="L2-AV-207" type="L2-AV-" depart="1449.00">
        <route edges="bottom-approaching closed-lane remerging-lane left-exit"/>
    </vehicle>
    <vehicle id="L2-AV-208" type="L2-AV-" depart="1456.00">
        <route edges="top-approaching bottom-exit"/>
    </vehicle>
    <vehicle id="L2-AV-209" type="L2-AV-" depart="1463.00">
        <route edges="bottom-approaching closed-lane remerging-lane left-exit"/>
    </vehicle>
    <vehicle id="L2-AV-210" type="L2-AV-Left-" depart="1470.00">
        <route edges="left-long-approaching preparation"/>
    </vehicle>
    <vehicle id="L2-AV-212" type="L2-AV-" depart="1484.00">
        <route edges="bottom-approaching top-exit"/>
    </vehicle>
    <vehicle id="L2-AV-213" type="L2-AV-" depart="1491.00">
        <route edges="left-long-approaching preparation left-short-approaching right-exit"/>
    </vehicle>
    <vehicle id="L2-AV-214" type="L2-AV-Right-" depart="1498.00">
        <route edges="left-long-approaching preparation left-short-approaching bottom-exit"/>
    </vehicle>
    <vehicle id="L2-AV-215" type="L2-AV-Right-" depart="1505.00">
        <route edges="left-long-approaching preparation left-short-approaching bottom-exit"/>
    </vehicle>
    <vehicle id="L2-AV-216" type="L2-AV-" depart="1512.00">
        <route edges="bottom-approaching right-exit"/>
    </vehicle>
    <vehicle id="L2-AV-217" type="L2-AV-" depart="1519.00">
        <route edges="right-approaching bottom-exit"/>
    </vehicle>
    <vehicle id="L2-AV-218" type="L2-AV-" depart="1526.00">
        <route edges="right-approaching closed-lane remerging-lane left-exit"/>
    </vehicle>
    <vehicle id="L2-AV-219" type="L2-AV-Left-" depart="1533.00">
        <route edges="left-long-approaching preparation"/>
    </vehicle>
    <vehicle id="L2-AV-220" type="L2-AV-Left-" depart="1540.00">
        <route edges="left-long-approaching preparation"/>
    </vehicle>
    <vehicle id="L2-AV-221" type="L2-AV-" depart="1547.00">
        <route edges="right-approaching closed-lane remerging-lane left-exit"/>
    </vehicle>
    <vehicle id="L2-AV-222" type="L2-AV-" depart="1554.00">
        <route edges="right-approaching closed-lane remerging-lane left-exit"/>
    </vehicle>
    <vehicle id="L2-AV-223" type="L2-AV-" depart="1561.00">
        <route edges="bottom-approaching right-exit"/>
    </vehicle>
    <vehicle id="L2-AV-224" type="L2-AV-" depart="1568.00">
        <route edges="right-approaching top-exit"/>
    </vehicle>
    <vehicle id="L2-AV-225" type="L2-AV-" depart="1575.00">
        <route edges="bottom-approaching top-exit"/>
    </vehicle>
    <vehicle id="L2-AV-227" type="L2-AV-" depart="1589.00">
        <route edges="top-approaching right-exit"/>
    </vehicle>
    <vehicle id="L2-AV-228" type="L2-AV-" depart="1596.00">
        <route edges="top-approaching right-exit"/>
    </vehicle>
    <vehicle id="L2-AV-229" type="L2-AV-" depart="1603.00">
        <route edges="top-approaching bottom-exit"/>
    </vehicle>
    <vehicle id="L2-AV-230" type="L2-AV-" depart="1610.00">
        <route edges="top-approaching closed-lane remerging-lane left-exit"/>
    </vehicle>
    <vehicle id="L2-AV-231" type="L2-AV-" depart="1617.00">
        <route edges="top-approaching closed-lane remerging-lane left-exit"/>
    </vehicle>
    <vehicle id="L2-AV-232" type="L2-AV-" depart="1624.00">
        <route edges="top-approaching bottom-exit"/>
    </vehicle>
    <vehicle id="L2-AV-233" type="L2-AV-" depart="1631.00">
        <route edges="bottom-approaching top-exit"/>
    </vehicle>
    <vehicle id="L2-AV-234" type="L2-AV-Left-" depart="1638.00">
        <route edges="left-long-approaching preparation"/>
    </vehicle>
    <vehicle id="L2-AV-235" type="L2-AV-" depart="1645.00">
        <route edges="top-approaching right-exit"/>
    </vehicle>
    <vehicle id="L2-AV-236" type="L2-AV-" depart="1652.00">
        <route edges="right-approaching bottom-exit"/>
    </vehicle>
    <vehicle id="L2-AV-237" type="L2-AV-" depart="1659.00">
        <route edges="bottom-approaching top-exit"/>
    </vehicle>
    <vehicle id="L2-AV-239" type="L2-AV-" depart="1673.00">
        <route edges="right-approaching closed-lane remerging-lane left-exit"/>
    </vehicle>
    <vehicle id="L2-AV-240" type="L2-AV-Right-" depart="1680.00">
        <route edges="left-long-approaching preparation left-short-approaching bottom-exit"/>
    </vehicle>
    <vehicle id="L2-AV-241" type="L2-AV-" depart="1687.00">
        <route edges="left-long-approaching preparation left-short-approaching right-exit"/>
    </vehicle>
    <vehicle id="L2-AV-243" type="L2-AV-Right-" depart="1701.00">
        <route edges="left-long-approaching preparation left-short-approaching bottom-exit"/>
    </vehicle>
    <vehicle id="L2-AV-244" type="L2-AV-" depart="1708.00">
        <route edges="top-approaching right-exit"/>
    </vehicle>
    <vehicle id="L2-AV-245" type="L2-AV-" depart="1715.00">
        <route edges="bottom-approaching closed-lane remerging-lane left-exit"/>
    </vehicle>
    <vehicle id="L2-AV-246" type="L2-AV-" depart="1722.00">
        <route edges="right-approaching bottom-exit"/>
    </vehicle>
    <vehicle id="L2-AV-248" type="L2-AV-" depart="1736.00">
        <route edges="right-approaching bottom-exit"/>
    </vehicle>
    <vehicle id="L2-AV-249" type="L2-AV-" depart="1743.00">
        <route edges="bottom-approaching closed-lane remerging-lane left-exit"/>
    </vehicle>
    <vehicle id="L2-AV-250" type="L2-AV-" depart="1750.00">
        <route edges="bottom-approaching closed-lane remerging-lane left-exit"/>
    </vehicle>
    <vehicle id="L2-AV-251" type="L2-AV-" depart="1757.00">
        <route edges="bottom-approaching top-exit"/>
    </vehicle>
    <vehicle id="L2-AV-252" type="L2-AV-" depart="1764.00">
        <route edges="top-approaching bottom-exit"/>
    </vehicle>
    <vehicle id="L2-AV-253" type="L2-AV-" depart="1771.00">
        <route edges="top-approaching bottom-exit"/>
    </vehicle>
    <vehicle id="L2-AV-254" type="L2-AV-" depart="1778.00">
        <route edges="bottom-approaching right-exit"/>
    </vehicle>
    <vehicle id="L2-AV-255" type="L2-AV-" depart="1785.00">
        <route edges="top-approaching bottom-exit"/>
    </vehicle>
    <vehicle id="L2-AV-256" type="L2-AV-" depart="1792.00">
        <route edges="bottom-approaching closed-lane remerging-lane left-exit"/>
    </vehicle>
    <vehicle id="L2-AV-257" type="L2-AV-" depart="1799.00">
        <route edges="bottom-approaching right-exit"/>
    </vehicle>
    <vehicle id="L2-AV-258" type="L2-AV-" depart="1806.00">
        <route edges="top-approaching bottom-exit"/>
    </vehicle>
    <vehicle id="L2-AV-259" type="L2-AV-" depart="1813.00">
        <route edges="bottom-approaching closed-lane remerging-lane left-exit"/>
    </vehicle>
    <vehicle id="L2-AV-260" type="L2-AV-" depart="1820.00">
        <route edges="top-approaching bottom-exit"/>
    </vehicle>
    <vehicle id="L2-AV-261" type="L2-AV-" depart="1827.00">
        <route edges="top-approaching closed-lane remerging-lane left-exit"/>
    </vehicle>
    <vehicle id="L2-AV-264" type="L2-AV-" depart="1848.00">
        <route edges="right-approaching bottom-exit"/>
    </vehicle>
    <vehicle id="L2-AV-265" type="L2-AV-" depart="1855.00">
        <route edges="top-approaching bottom-exit"/>
    </vehicle>
    <vehicle id="L2-AV-266" type="L2-AV-" depart="1862.00">
        <route edges="right-approaching bottom-exit"/>
    </vehicle>
    <vehicle id="L2-AV-268" type="L2-AV-" depart="1876.00">
        <route edges="top-approaching closed-lane remerging-lane left-exit"/>