<?xml version="1.0" ?><!-- generated on 03/25/21 15:56:49 by Eclipse SUMO duarouter Version 1.8.0
<configuration xmlns:xsi="http://www.w3.org/2001/XMLSchema-instance" xsi:noNamespaceSchemaLocation="http://sumo.dlr.de/xsd/duarouterConfiguration.xsd">

    <input>
        <net-file value="Roadworks/RoadworksIntersection.net.xml"/>
        <route-files value="trips.trips.xml"/>
    </input>

    <output>
        <output-file value="Roadworks/RealTMSPenetration3/Route-Files/L4-AV-Route.rou.xml"/>
        <alternatives-output value="Roadworks/RealTMSPenetration3/Route-Files/L4-AV-Route.rou.alt.xml"/>
    </output>

    <time>
        <begin value="0"/>
        <end value="3600"/>
    </time>

    <report>
        <no-warnings value="true"/>
        <ignore-errors value="true"/>
        <no-step-log value="true"/>
    </report>

</configuration>
--><routes xmlns:xsi="http://www.w3.org/2001/XMLSchema-instance" xsi:noNamespaceSchemaLocation="http://sumo.dlr.de/xsd/routes_file.xsd">
    <vehicle id="L4-AV-0" type="L4-AV-Right-" depart="0.00">
        <route edges="left-long-approaching preparation left-short-approaching bottom-exit"/>
    </vehicle>
    <vehicle id="L4-AV-1" type="L4-AV-" depart="4.20">
        <route edges="right-approaching bottom-exit"/>
    </vehicle>
    <vehicle id="L4-AV-2" type="L4-AV-" depart="8.40">
        <route edges="right-approaching closed-lane remerging-lane left-exit"/>
    </vehicle>
    <vehicle id="L4-AV-3" type="L4-AV-" depart="12.60">
        <route edges="bottom-approaching right-exit"/>
    </vehicle>
    <vehicle id="L4-AV-4" type="L4-AV-" depart="16.80">
        <route edges="bottom-approaching closed-lane remerging-lane left-exit"/>
    </vehicle>
    <vehicle id="L4-AV-6" type="L4-AV-Left-" depart="25.20">
        <route edges="left-long-approaching preparation"/>
    </vehicle>
    <vehicle id="L4-AV-8" type="L4-AV-" depart="33.60">
        <route edges="right-approaching top-exit"/>
    </vehicle>
    <vehicle id="L4-AV-9" type="L4-AV-" depart="37.80">
        <route edges="right-approaching closed-lane remerging-lane left-exit"/>
    </vehicle>
    <vehicle id="L4-AV-10" type="L4-AV-" depart="42.00">
        <route edges="top-approaching bottom-exit"/>
    </vehicle>
    <vehicle id="L4-AV-11" type="L4-AV-" depart="46.20">
        <route edges="top-approaching closed-lane remerging-lane left-exit"/>
    </vehicle>
    <vehicle id="L4-AV-13" type="L4-AV-Left-" depart="54.60">
        <route edges="left-long-approaching preparation"/>
    </vehicle>
    <vehicle id="L4-AV-14" type="L4-AV-" depart="58.80">
        <route edges="bottom-approaching right-exit"/>
    </vehicle>
    <vehicle id="L4-AV-15" type="L4-AV-" depart="63.00">
        <route edges="right-approaching closed-lane remerging-lane left-exit"/>
    </vehicle>
    <vehicle id="L4-AV-16" type="L4-AV-" depart="67.20">
        <route edges="right-approaching bottom-exit"/>
    </vehicle>
    <vehicle id="L4-AV-18" type="L4-AV-" depart="75.60">
        <route edges="right-approaching closed-lane remerging-lane left-exit"/>
    </vehicle>
    <vehicle id="L4-AV-19" type="L4-AV-" depart="79.80">
        <route edges="left-long-approaching preparation left-short-approaching right-exit"/>
    </vehicle>
    <vehicle id="L4-AV-21" type="L4-AV-" depart="88.20">
        <route edges="top-approaching right-exit"/>
    </vehicle>
    <vehicle id="L4-AV-22" type="L4-AV-" depart="92.40">
        <route edges="bottom-approaching right-exit"/>
    </vehicle>
    <vehicle id="L4-AV-23" type="L4-AV-" depart="96.60">
        <route edges="right-approaching top-exit"/>
    </vehicle>
    <vehicle id="L4-AV-24" type="L4-AV-" depart="100.80">
        <route edges="right-approaching closed-lane remerging-lane left-exit"/>
    </vehicle>
    <vehicle id="L4-AV-25" type="L4-AV-" depart="105.00">
        <route edges="top-approaching bottom-exit"/>
    </vehicle>
    <vehicle id="L4-AV-26" type="L4-AV-Left-" depart="109.20">
        <route edges="left-long-approaching preparation"/>
    </vehicle>
    <vehicle id="L4-AV-27" type="L4-AV-" depart="113.40">
        <route edges="bottom-approaching closed-lane remerging-lane left-exit"/>
    </vehicle>
    <vehicle id="L4-AV-28" type="L4-AV-" depart="117.60">
        <route edges="bottom-approaching right-exit"/>
    </vehicle>
    <vehicle id="L4-AV-29" type="L4-AV-" depart="121.80">
        <route edges="top-approaching right-exit"/>
    </vehicle>
    <vehicle id="L4-AV-30" type="L4-AV-" depart="126.00">
        <route edges="top-approaching closed-lane remerging-lane left-exit"/>
    </vehicle>
    <vehicle id="L4-AV-32" type="L4-AV-" depart="134.40">
        <route edges="right-approaching closed-lane remerging-lane left-exit"/>
    </vehicle>
    <vehicle id="L4-AV-34" type="L4-AV-" depart="142.80">
        <route edges="left-long-approaching preparation left-short-approaching right-exit"/>
    </vehicle>
    <vehicle id="L4-AV-35" type="L4-AV-" depart="147.00">
        <route edges="bottom-approaching right-exit"/>
    </vehicle>
    <vehicle id="L4-AV-36" type="L4-AV-" depart="151.20">
        <route edges="right-approaching top-exit"/>
    </vehicle>
    <vehicle id="L4-AV-37" type="L4-AV-" depart="155.40">
        <route edges="top-approaching closed-lane remerging-lane left-exit"/>
    </vehicle>
    <vehicle id="L4-AV-38" type="L4-AV-" depart="159.60">
        <route edges="left-long-approaching preparation left-short-approaching right-exit"/>
    </vehicle>
    <vehicle id="L4-AV-39" type="L4-AV-" depart="163.80">
        <route edges="bottom-approaching closed-lane remerging-lane left-exit"/>
    </vehicle>
    <vehicle id="L4-AV-41" type="L4-AV-" depart="172.20">
        <route edges="bottom-approaching top-exit"/>
    </vehicle>
    <vehicle id="L4-AV-43" type="L4-AV-Left-" depart="180.60">
        <route edges="left-long-approaching preparation"/>
    </vehicle>
    <vehicle id="L4-AV-44" type="L4-AV-" depart="184.80">
        <route edges="bottom-approaching closed-lane remerging-lane left-exit"/>
    </vehicle>
    <vehicle id="L4-AV-45" type="L4-AV-" depart="189.00">
        <route edges="right-approaching top-exit"/>
    </vehicle>
    <vehicle id="L4-AV-48" type="L4-AV-Left-" depart="201.60">
        <route edges="left-long-approaching preparation"/>
    </vehicle>
    <vehicle id="L4-AV-49" type="L4-AV-" depart="205.80">
        <route edges="top-approaching bottom-exit"/>
    </vehicle>
    <vehicle id="L4-AV-51" type="L4-AV-" depart="214.20">
        <route edges="bottom-approaching closed-lane remerging-lane left-exit"/>
    </vehicle>
    <vehicle id="L4-AV-52" type="L4-AV-" depart="218.40">
        <route edges="right-approaching closed-lane remerging-lane left-exit"/>
    </vehicle>
    <vehicle id="L4-AV-53" type="L4-AV-" depart="222.60">
        <route edges="bottom-approaching closed-lane remerging-lane left-exit"/>
    </vehicle>
    <vehicle id="L4-AV-54" type="L4-AV-" depart="226.80">
        <route edges="left-long-approaching preparation left-short-approaching right-exit"/>
    </vehicle>
    <vehicle id="L4-AV-55" type="L4-AV-" depart="231.00">
        <route edges="top-approaching right-exit"/>
    </vehicle>
    <vehicle id="L4-AV-57" type="L4-AV-" depart="239.40">
        <route edges="right-approaching bottom-exit"/>
    </vehicle>
    <vehicle id="L4-AV-61" type="L4-AV-" depart="256.20">
        <route edges="bottom-approaching right-exit"/>
    </vehicle>
    <vehicle id="L4-AV-64" type="L4-AV-Right-" depart="268.80">
        <route edges="left-long-approaching preparation left-short-approaching bottom-exit"/>
    </vehicle>
    <vehicle id="L4-AV-66" type="L4-AV-" depart="277.20">
        <route edges="bottom-approaching closed-lane remerging-lane left-exit"/>
    </vehicle>
    <vehicle id="L4-AV-67" type="L4-AV-" depart="281.40">
        <route edges="bottom-approaching top-exit"/>
    </vehicle>
    <vehicle id="L4-AV-68" type="L4-AV-" depart="285.60">
        <route edges="right-approaching bottom-exit"/>
    </vehicle>
    <vehicle id="L4-AV-70" type="L4-AV-Right-" depart="294.00">
        <route edges="left-long-approaching preparation left-short-approaching bottom-exit"/>
    </vehicle>
    <vehicle id="L4-AV-75" type="L4-AV-" depart="315.00">
        <route edges="top-approaching bottom-exit"/>
    </vehicle>
    <vehicle id="L4-AV-76" type="L4-AV-" depart="319.20">
        <route edges="bottom-approaching top-exit"/>
    </vehicle>
    <vehicle id="L4-AV-77" type="L4-AV-" depart="323.40">
        <route edges="right-approaching bottom-exit"/>
    </vehicle>
    <vehicle id="L4-AV-78" type="L4-AV-" depart="327.60">
        <route edges="right-approaching bottom-exit"/>
    </vehicle>
    <vehicle id="L4-AV-79" type="L4-AV-" depart="331.80">
        <route edges="right-approaching top-exit"/>
    </vehicle>
    <vehicle id="L4-AV-80" type="L4-AV-" depart="336.00">
        <route edges="top-approaching right-exit"/>
    </vehicle>
    <vehicle id="L4-AV-82" type="L4-AV-" depart="344.40">
        <route edges="bottom-approaching top-exit"/>
    </vehicle>
    <vehicle id="L4-AV-83" type="L4-AV-" depart="348.60">
        <route edges="right-approaching top-exit"/>
    </vehicle>
    <vehicle id="L4-AV-84" type="L4-AV-Right-" depart="352.80">
        <route edges="left-long-approaching preparation left-short-approaching bottom-exit"/>
    </vehicle>
    <vehicle id="L4-AV-87" type="L4-AV-" depart="365.40">
        <route edges="top-approaching right-exit"/>
    </vehicle>
    <vehicle id="L4-AV-88" type="L4-AV-" depart="369.60">
        <route edges="bottom-approaching right-exit"/>
    </vehicle>
    <vehicle id="L4-AV-89" type="L4-AV-Right-" depart="373.80">
        <route edges="left-long-approaching preparation left-short-approaching bottom-exit"/>
    </vehicle>
    <vehicle id="L4-AV-90" type="L4-AV-" depart="378.00">
        <route edges="bottom-approaching closed-lane remerging-lane left-exit"/>
    </vehicle>
    <vehicle id="L4-AV-91" type="L4-AV-" depart="382.20">
        <route edges="left-long-approaching preparation left-short-approaching right-exit"/>
    </vehicle>
    <vehicle id="L4-AV-92" type="L4-AV-" depart="386.40">
        <route edges="top-approaching closed-lane remerging-lane left-exit"/>
    </vehicle>
    <vehicle id="L4-AV-94" type="L4-AV-" depart="394.80">
        <route edges="top-approaching closed-lane remerging-lane left-exit"/>
    </vehicle>
    <vehicle id="L4-AV-97" type="L4-AV-" depart="407.40">
        <route edges="right-approaching top-exit"/>
    </vehicle>
    <vehicle id="L4-AV-98" type="L4-AV-" depart="411.60">
        <route edges="top-approaching closed-lane remerging-lane left-exit"/>
    </vehicle>
    <vehicle id="L4-AV-99" type="L4-AV-" depart="415.80">
        <route edges="right-approaching top-exit"/>
    </vehicle>
    <vehicle id="L4-AV-100" type="L4-AV-" depart="420.00">
        <route edges="bottom-approaching right-exit"/>
    </vehicle>
    <vehicle id="L4-AV-102" type="L4-AV-" depart="428.40">
        <route edges="right-approaching closed-lane remerging-lane left-exit"/>
    </vehicle>
    <vehicle id="L4-AV-103" type="L4-AV-" depart="432.60">
        <route edges="bottom-approaching top-exit"/>
    </vehicle>
    <vehicle id="L4-AV-104" type="L4-AV-Left-" depart="436.80">
        <route edges="left-long-approaching preparation"/>
    </vehicle>
    <vehicle id="L4-AV-105" type="L4-AV-" depart="441.00">
        <route edges="top-approaching closed-lane remerging-lane left-exit"/>
    </vehicle>
    <vehicle id="L4-AV-106" type="L4-AV-Left-" depart="445.20">
        <route edges="left-long-approaching preparation"/>
    </vehicle>
    <vehicle id="L4-AV-107" type="L4-AV-" depart="449.40">
        <route edges="right-approaching bottom-exit"/>
    </vehicle>
    <vehicle id="L4-AV-110" type="L4-AV-" depart="462.00">
        <route edges="bottom-approaching top-exit"/>
    </vehicle>
    <vehicle id="L4-AV-111" type="L4-AV-" depart="466.20">
        <route edges="top-approaching right-exit"/>
    </vehicle>
    <vehicle id="L4-AV-112" type="L4-AV-" depart="470.40">
        <route edges="left-long-approaching preparation left-short-approaching right-exit"/>
    </vehicle>
    <vehicle id="L4-AV-114" type="L4-AV-" depart="478.80">
        <route edges="top-approaching right-exit"/>
    </vehicle>
    <vehicle id="L4-AV-115" type="L4-AV-" depart="483.00">
        <route edges="right-approaching top-exit"/>
    </vehicle>
    <vehicle id="L4-AV-116" type="L4-AV-Left-" depart="487.20">
        <route edges="left-long-approaching preparation"/>
    </vehicle>
    <vehicle id="L4-AV-117" type="L4-AV-" depart="491.40">
        <route edges="top-approaching bottom-exit"/>
    </vehicle>
    <vehicle id="L4-AV-119" type="L4-AV-" depart="499.80">
        <route edges="bottom-approaching right-exit"/>
    </vehicle>
    <vehicle id="L4-AV-121" type="L4-AV-" depart="508.20">
        <route edges="bottom-approaching top-exit"/>
    </vehicle>
    <vehicle id="L4-AV-123" type="L4-AV-" depart="516.60">
        <route edges="right-approaching top-exit"/>
    </vehicle>
    <vehicle id="L4-AV-124" type="L4-AV-Left-" depart="520.80">
        <route edges="left-long-approaching preparation"/>
    </vehicle>
    <vehicle id="L4-AV-125" type="L4-AV-" depart="525.00">
        <route edges="left-long-approaching preparation left-short-approaching right-exit"/>
    </vehicle>
    <vehicle id="L4-AV-126" type="L4-AV-" depart="529.20">
        <route edges="right-approaching bottom-exit"/>
    </vehicle>
    <vehicle id="L4-AV-127" type="L4-AV-Right-" depart="533.40">
        <route edges="left-long-approaching preparation left-short-approaching bottom-exit"/>
    </vehicle>
    <vehicle id="L4-AV-128" type="L4-AV-" depart="537.60">
        <route edges="bottom-approaching top-exit"/>
    </vehicle>
    <vehicle id="L4-AV-129" type="L4-AV-" depart="541.80">
        <route edges="bottom-approaching closed-lane remerging-lane left-exit"/>
    </vehicle>
    <vehicle id="L4-AV-131" type="L4-AV-" depart="550.20">
        <route edges="left-long-approaching preparation left-short-approaching right-exit"/>
    </vehicle>
    <vehicle id="L4-AV-132" type="L4-AV-" depart="554.40">
        <route edges="right-approaching top-exit"/>
    </vehicle>
    <vehicle id="L4-AV-133" type="L4-AV-" depart="558.60">
        <route edges="bottom-approaching right-exit"/>
    </vehicle>
    <vehicle id="L4-AV-134" type="L4-AV-" depart="562.80">
        <route edges="closed-lane remerging-lane left-exit"/>
    </vehicle>
    <vehicle id="L4-AV-135" type="L4-AV-" depart="567.00">
        <route edges="top-approaching right-exit"/>
    </vehicle>
    <vehicle id="L4-AV-136" type="L4-AV-" depart="571.20">
        <route edges="right-approaching top-exit"/>
    </vehicle>
    <vehicle id="L4-AV-137" type="L4-AV-" depart="575.40">
        <route edges="top-approaching closed-lane remerging-lane left-exit"/>
    </vehicle>
    <vehicle id="L4-AV-140" type="L4-AV-" depart="588.00">
        <route edges="left-long-approaching preparation left-short-approaching right-exit"/>
    </vehicle>
    <vehicle id="L4-AV-141" type="L4-AV-Left-" depart="592.20">
        <route edges="left-long-approaching preparation"/>
    </vehicle>
    <vehicle id="L4-AV-142" type="L4-AV-" depart="596.40">
        <route edges="right-approaching top-exit"/>
    </vehicle>
    <vehicle id="L4-AV-143" type="L4-AV-" depart="600.60">
        <route edges="top-approaching closed-lane remerging-lane left-exit"/>
    </vehicle>
    <vehicle id="L4-AV-144" type="L4-AV-" depart="604.80">
        <route edges="right-approaching top-exit"/>
    </vehicle>
    <vehicle id="L4-AV-145" type="L4-AV-" depart="609.00">
        <route edges="top-approaching bottom-exit"/>
    </vehicle>
    <vehicle id="L4-AV-146" type="L4-AV-" depart="613.20">
        <route edges="bottom-approaching closed-lane remerging-lane left-exit"/>
    </vehicle>
    <vehicle id="L4-AV-148" type="L4-AV-" depart="621.60">
        <route edges="bottom-approaching right-exit"/>
    </vehicle>
    <vehicle id="L4-AV-150" type="L4-AV-" depart="630.00">
        <route edges="bottom-approaching right-exit"/>
    </vehicle>
    <vehicle id="L4-AV-151" type="L4-AV-" depart="634.20">
        <route edges="right-approaching bottom-exit"/>
    </vehicle>
    <vehicle id="L4-AV-153" type="L4-AV-" depart="642.60">
        <route edges="bottom-approaching top-exit"/>
    </vehicle>
    <vehicle id="L4-AV-156" type="L4-AV-" depart="655.20">
        <route edges="bottom-approaching closed-lane remerging-lane left-exit"/>
    </vehicle>
    <vehicle id="L4-AV-157" type="L4-AV-" depart="659.40">
        <route edges="right-approaching closed-lane remerging-lane left-exit"/>
    </vehicle>
    <vehicle id="L4-AV-158" type="L4-AV-" depart="663.60">
        <route edges="bottom-approaching closed-lane remerging-lane left-exit"/>
    </vehicle>
    <vehicle id="L4-AV-159" type="L4-AV-" depart="667.80">
        <route edges="right-approaching bottom-exit"/>
    </vehicle>
    <vehicle id="L4-AV-160" type="L4-AV-" depart="672.00">
        <route edges="right-approaching closed-lane remerging-lane left-exit"/>
    </vehicle>
    <vehicle id="L4-AV-161" type="L4-AV-" depart="676.20">
        <route edges="bottom-approaching closed-lane remerging-lane left-exit"/>
    </vehicle>
    <vehicle id="L4-AV-163" type="L4-AV-" depart="684.60">
        <route edges="bottom-approaching top-exit"/>
    </vehicle>
    <vehicle id="L4-AV-165" type="L4-AV-" depart="693.00">
        <route edges="bottom-approaching closed-lane remerging-lane left-exit"/>
    </vehicle>
    <vehicle id="L4-AV-166" type="L4-AV-" depart="697.20">
        <route edges="bottom-approaching top-exit"/>
    </vehicle>
    <vehicle id="L4-AV-167" type="L4-AV-Right-" depart="701.40">
        <route edges="left-long-approaching preparation left-short-approaching bottom-exit"/>
    </vehicle>
    <vehicle id="L4-AV-168" type="L4-AV-Left-" depart="705.60">
        <route edges="left-long-approaching preparation"/>
    </vehicle>
    <vehicle id="L4-AV-169" type="L4-AV-" depart="709.80">
        <route edges="top-approaching closed-lane remerging-lane left-exit"/>
    </vehicle>
    <vehicle id="L4-AV-170" type="L4-AV-" depart="714.00">
        <route edges="bottom-approaching top-exit"/>
    </vehicle>
    <vehicle id="L4-AV-173" type="L4-AV-" depart="726.60">
        <route edges="right-approaching closed-lane remerging-lane left-exit"/>
    </vehicle>
    <vehicle id="L4-AV-174" type="L4-AV-" depart="730.80">
        <route edges="bottom-approaching top-exit"/>
    </vehicle>
    <vehicle id="L4-AV-175" type="L4-AV-" depart="735.00">
        <route edges="right-approaching top-exit"/>
    </vehicle>
    <vehicle id="L4-AV-176" type="L4-AV-" depart="739.20">
        <route edges="bottom-approaching top-exit"/>
    </vehicle>
    <vehicle id="L4-AV-177" type="L4-AV-" depart="743.40">
        <route edges="bottom-approaching top-exit"/>
    </vehicle>
    <vehicle id="L4-AV-179" type="L4-AV-" depart="751.80">
        <route edges="right-approaching top-exit"/>
    </vehicle>
    <vehicle id="L4-AV-180" type="L4-AV-Right-" depart="756.00">
        <route edges="left-long-approaching preparation left-short-approaching bottom-exit"/>
    </vehicle>
    <vehicle id="L4-AV-181" type="L4-AV-" depart="760.20">
        <route edges="right-approaching bottom-exit"/>
    </vehicle>
    <vehicle id="L4-AV-185" type="L4-AV-" depart="777.00">
        <route edges="top-approaching closed-lane remerging-lane left-exit"/>
    </vehicle>
    <vehicle id="L4-AV-186" type="L4-AV-Right-" depart="781.20">
        <route edges="left-long-approaching preparation left-short-approaching bottom-exit"/>
    </vehicle>
    <vehicle id="L4-AV-187" type="L4-AV-Right-" depart="785.40">
        <route edges="left-long-approaching preparation left-short-approaching bottom-exit"/>
    </vehicle>
    <vehicle id="L4-AV-188" type="L4-AV-Right-" depart="789.60">
        <route edges="left-long-approaching preparation left-short-approaching bottom-exit"/>
    </vehicle>
    <vehicle id="L4-AV-190" type="L4-AV-" depart="798.00">
        <route edges="bottom-approaching closed-lane remerging-lane left-exit"/>
    </vehicle>
    <vehicle id="L4-AV-191" type="L4-AV-" depart="802.20">
        <route edges="top-approaching bottom-exit"/>
    </vehicle>
    <vehicle id="L4-AV-192" type="L4-AV-" depart="806.40">
        <route edges="top-approaching closed-lane remerging-lane left-exit"/>
    </vehicle>
    <vehicle id="L4-AV-193" type="L4-AV-Left-" depart="810.60">
        <route edges="left-long-approaching preparation"/>
    </vehicle>
    <vehicle id="L4-AV-194" type="L4-AV-" depart="814.80">
        <route edges="left-long-approaching preparation left-short-approaching right-exit"/>
    </vehicle>
    <vehicle id="L4-AV-195" type="L4-AV-" depart="819.00">
        <route edges="right-approaching top-exit"/>
    </vehicle>
    <vehicle id="L4-AV-196" type="L4-AV-Left-" depart="823.20">
        <route edges="left-long-approaching preparation"/>
    </vehicle>
    <vehicle id="L4-AV-200" type="L4-AV-" depart="840.00">
        <route edges="bottom-approaching right-exit"/>
    </vehicle>
    <vehicle id="L4-AV-201" type="L4-AV-Right-" depart="844.20">
        <route edges="left-long-approaching preparation left-short-approaching bottom-exit"/>
    </vehicle>
    <vehicle id="L4-AV-202" type="L4-AV-" depart="848.40">
        <route edges="bottom-approaching top-exit"/>
    </vehicle>
    <vehicle id="L4-AV-203" type="L4-AV-" depart="852.60">
        <route edges="top-approaching right-exit"/>
    </vehicle>
    <vehicle id="L4-AV-204" type="L4-AV-Right-" depart="856.80">
        <route edges="left-long-approaching preparation left-short-approaching bottom-exit"/>
    </vehicle>
    <vehicle id="L4-AV-206" type="L4-AV-" depart="865.20">
        <route edges="bottom-approaching closed-lane remerging-lane left-exit"/>
    </vehicle>
    <vehicle id="L4-AV-207" type="L4-AV-Left-" depart="869.40">
        <route edges="left-long-approaching preparation"/>
    </vehicle>
    <vehicle id="L4-AV-208" type="L4-AV-" depart="873.60">
        <route edges="top-approaching right-exit"/>
    </vehicle>
    <vehicle id="L4-AV-209" type="L4-AV-" depart="877.80">
        <route edges="bottom-approaching top-exit"/>
    </vehicle>
    <vehicle id="L4-AV-211" type="L4-AV-" depart="886.20">
        <route edges="bottom-approaching closed-lane remerging-lane left-exit"/>
    </vehicle>
    <vehicle id="L4-AV-212" type="L4-AV-" depart="890.40">
        <route edges="left-long-approaching preparation left-short-approaching right-exit"/>
    </vehicle>
    <vehicle id="L4-AV-213" type="L4-AV-" depart="894.60">
        <route edges="bottom-approaching right-exit"/>
    </vehicle>
    <vehicle id="L4-AV-214" type="L4-AV-" depart="898.80">
        <route edges="bottom-approaching closed-lane remerging-lane left-exit"/>
    </vehicle>
    <vehicle id="L4-AV-215" type="L4-AV-" depart="903.00">
        <route edges="bottom-approaching closed-lane remerging-lane left-exit"/>
    </vehicle>
    <vehicle id="L4-AV-217" type="L4-AV-Right-" depart="911.40">
        <route edges="left-long-approaching preparation left-short-approaching bottom-exit"/>
    </vehicle>
    <vehicle id="L4-AV-220" type="L4-AV-" depart="924.00">
        <route edges="right-approaching top-exit"/>
    </vehicle>
    <vehicle id="L4-AV-222" type="L4-AV-" depart="932.40">
        <route edges="top-approaching bottom-exit"/>
    </vehicle>
    <vehicle id="L4-AV-224" type="L4-AV-" depart="940.80">
        <route edges="bottom-approaching top-exit"/>
    </vehicle>
    <vehicle id="L4-AV-225" type="L4-AV-" depart="945.00">
        <route edges="top-approaching right-exit"/>
    </vehicle>
    <vehicle id="L4-AV-226" type="L4-AV-" depart="949.20">
        <route edges="right-approaching top-exit"/>
    </vehicle>
    <vehicle id="L4-AV-227" type="L4-AV-" depart="953.40">
        <route edges="bottom-approaching right-exit"/>
    </vehicle>
    <vehicle id="L4-AV-228" type="L4-AV-" depart="957.60">
        <route edges="right-approaching top-exit"/>
    </vehicle>
    <vehicle id="L4-AV-230" type="L4-AV-" depart="966.00">
        <route edges="right-approaching top-exit"/>
    </vehicle>
    <vehicle id="L4-AV-233" type="L4-AV-" depart="978.60">
        <route edges="bottom-approaching closed-lane remerging-lane left-exit"/>
    </vehicle>
    <vehicle id="L4-AV-234" type="L4-AV-" depart="982.80">
        <route edges="bottom-approaching top-exit"/>
    </vehicle>
    <vehicle id="L4-AV-237" type="L4-AV-Right-" depart="995.40">
        <route edges="left-long-approaching preparation left-short-approaching bottom-exit"/>
    </vehicle>
    <vehicle id="L4-AV-238" type="L4-AV-" depart="999.60">
        <route edges="top-approaching right-exit"/>
    </vehicle>
    <vehicle id="L4-AV-239" type="L4-AV-" depart="1003.80">
        <route edges="left-long-approaching preparation left-short-approaching right-exit"/>
    </vehicle>
    <vehicle id="L4-AV-240" type="L4-AV-" depart="1008.00">
        <route edges="right-approaching bottom-exit"/>
    </vehicle>
    <vehicle id="L4-AV-241" type="L4-AV-" depart="1012.20">
        <route edges="right-approaching closed-lane remerging-lane left-exit"/>
    </vehicle>
    <vehicle id="L4-AV-242" type="L4-AV-" depart="1016.40">
        <route edges="bottom-approaching closed-lane remerging-lane left-exit"/>
    </vehicle>
    <vehicle id="L4-AV-243" type="L4-AV-" depart="1020.60">
        <route edges="right-approaching bottom-exit"/>
    </vehicle>
    <vehicle id="L4-AV-244" type="L4-AV-" depart="1024.80">
        <route edges="right-approaching top-exit"/>
    </vehicle>
    <vehicle id="L4-AV-246" type="L4-AV-" depart="1033.20">
        <route edges="left-long-approaching preparation left-short-approaching right-exit"/>
    </vehicle>
    <vehicle id="L4-AV-247" type="L4-AV-" depart="1037.40">
        <route edges="top-approaching right-exit"/>
    </vehicle>
    <vehicle id="L4-AV-248" type="L4-AV-" depart="1041.60">
        <route edges="right-approaching bottom-exit"/>
    </vehicle>
    <vehicle id="L4-AV-249" type="L4-AV-" depart="1045.80">
        <route edges="bottom-approaching closed-lane remerging-lane left-exit"/>
    </vehicle>
    <vehicle id="L4-AV-250" type="L4-AV-" depart="1050.00">
        <route edges="right-approaching closed-lane remerging-lane left-exit"/>
    </vehicle>
    <vehicle id="L4-AV-251" type="L4-AV-" depart="1054.20">
        <route edges="right-approaching bottom-exit"/>
    </vehicle>
    <vehicle id="L4-AV-252" type="L4-AV-" depart="1058.40">
        <route edges="bottom-approaching closed-lane remerging-lane left-exit"/>
    </vehicle>
    <vehicle id="L4-AV-254" type="L4-AV-" depart="1066.80">
        <route edges="right-approaching closed-lane remerging-lane left-exit"/>
    </vehicle>
    <vehicle id="L4-AV-255" type="L4-AV-" depart="1071.00">
        <route edges="right-approaching closed-lane remerging-lane left-exit"/>
    </vehicle>
    <vehicle id="L4-AV-256" type="L4-AV-Right-" depart="1075.20">
        <route edges="left-long-approaching preparation left-short-approaching bottom-exit"/>
    </vehicle>
    <vehicle id="L4-AV-257" type="L4-AV-" depart="1079.40">
        <route edges="top-approaching bottom-exit"/>
    </vehicle>
    <vehicle id="L4-AV-259" type="L4-AV-" depart="1087.80">
        <route edges="bottom-approaching closed-lane remerging-lane left-exit"/>
    </vehicle>
    <vehicle id="L4-AV-262" type="L4-AV-" depart="1100.40">
        <route edges="bottom-approaching top-exit"/>
    </vehicle>
    <vehicle id="L4-AV-263" type="L4-AV-" depart="1104.60">
        <route edges="bottom-approaching right-exit"/>
    </vehicle>
    <vehicle id="L4-AV-264" type="L4-AV-" depart="1108.80">
        <route edges="bottom-approaching right-exit"/>
    </vehicle>
    <vehicle id="L4-AV-265" type="L4-AV-" depart="1113.00">
        <route edges="top-approaching bottom-exit"/>
    </vehicle>
    <vehicle id="L4-AV-266" type="L4-AV-" depart="1117.20">
        <route edges="top-approaching right-exit"/>
    </vehicle>
    <vehicle id="L4-AV-267" type="L4-AV-" depart="1121.40">
        <route edges="top-approaching right-exit"/>
    </vehicle>
    <vehicle id="L4-AV-268" type="L4-AV-" depart="1125.60">
        <route edges="bottom-approaching top-exit"/>
    </vehicle>
    <vehicle id="L4-AV-269" type="L4-AV-Right-" depart="1129.80">
        <route edges="left-long-approaching preparation left-short-approaching bottom-exit"/>
    </vehicle>
    <vehicle id="L4-AV-270" type="L4-AV-" depart="1134.00">
        <route edges="bottom-approaching closed-lane remerging-lane left-exit"/>
    </vehicle>
    <vehicle id="L4-AV-272" type="L4-AV-" depart="1142.40">
        <route edges="bottom-approaching closed-lane remerging-lane left-exit"/>
    </vehicle>
    <vehicle id="L4-AV-273" type="L4-AV-Left-" depart="1146.60">
        <route edges="left-long-approaching preparation"/>
    </vehicle>
    <vehicle id="L4-AV-274" type="L4-AV-" depart="1150.80">
        <route edges="bottom-approaching right-exit"/>
    </vehicle>
    <vehicle id="L4-AV-275" type="L4-AV-" depart="1155.00">
        <route edges="top-approaching bottom-exit"/>
    </vehicle>
    <vehicle id="L4-AV-276" type="L4-AV-" depart="1159.20">
        <route edges="top-approaching right-exit"/>
    </vehicle>
    <vehicle id="L4-AV-277" type="L4-AV-" depart="1163.40">
        <route edges="top-approaching closed-lane remerging-lane left-exit"/>
    </vehicle>
    <vehicle id="L4-AV-279" type="L4-AV-" depart="1171.80">
        <route edges="top-approaching right-exit"/>
    </vehicle>
    <vehicle id="L4-AV-281" type="L4-AV-Right-" depart="1180.20">
        <route edges="left-long-approaching preparation left-short-approaching bottom-exit"/>
    </vehicle>