<?xml version="1.0" ?><!-- generated on 03/31/21 00:29:43 by Eclipse SUMO duarouter Version 1.8.0
<configuration xmlns:xsi="http://www.w3.org/2001/XMLSchema-instance" xsi:noNamespaceSchemaLocation="http://sumo.dlr.de/xsd/duarouterConfiguration.xsd">

    <input>
        <net-file value="Roadworks/RoadworksIntersection.net.xml"/>
        <route-files value="trips.trips.xml"/>
    </input>

    <output>
        <output-file value="Roadworks/RealTMSPenetration3/Route-Files/L4-CV-Route.rou.xml"/>
        <alternatives-output value="Roadworks/RealTMSPenetration3/Route-Files/L4-CV-Route.rou.alt.xml"/>
    </output>

    <time>
        <begin value="0"/>
        <end value="3600"/>
    </time>

    <report>
        <no-warnings value="true"/>
        <ignore-errors value="true"/>
        <no-step-log value="true"/>
    </report>

</configuration>
--><routes xmlns:xsi="http://www.w3.org/2001/XMLSchema-instance" xsi:noNamespaceSchemaLocation="http://sumo.dlr.de/xsd/routes_file.xsd">
    <vehicle id="L4-CV-0" type="L4-CV-" depart="0.00">
        <route edges="bottom-approaching right-exit"/>
    </vehicle>
    <vehicle id="L4-CV-1" type="L4-CV-" depart="6.20">
        <route edges="left-long-approaching preparation left-short-approaching right-exit"/>
    </vehicle>
    <vehicle id="L4-CV-2" type="L4-CV-" depart="12.40">
        <route edges="right-approaching bottom-exit"/>
    </vehicle>
    <vehicle id="L4-CV-3" type="L4-CV-" depart="18.60">
        <route edges="bottom-approaching top-exit"/>
    </vehicle>
    <vehicle id="L4-CV-4" type="L4-CV-Right-" depart="24.80">
        <route edges="left-long-approaching preparation left-short-approaching bottom-exit"/>
    </vehicle>
    <vehicle id="L4-CV-5" type="L4-CV-" depart="31.00">
        <route edges="top-approaching closed-lane remerging-lane left-exit"/>
    </vehicle>
    <vehicle id="L4-CV-6" type="L4-CV-" depart="37.20">
        <route edges="top-approaching closed-lane remerging-lane left-exit"/>
    </vehicle>
    <vehicle id="L4-CV-7" type="L4-CV-" depart="43.40">
        <route edges="right-approaching bottom-exit"/>
    </vehicle>
    <vehicle id="L4-CV-8" type="L4-CV-" depart="49.60">
        <route edges="right-approaching top-exit"/>
    </vehicle>
    <vehicle id="L4-CV-10" type="L4-CV-" depart="62.00">
        <route edges="right-approaching bottom-exit"/>
    </vehicle>
    <vehicle id="L4-CV-11" type="L4-CV-" depart="68.20">
        <route edges="top-approaching right-exit"/>
    </vehicle>
    <vehicle id="L4-CV-12" type="L4-CV-Right-" depart="74.40">
        <route edges="left-long-approaching preparation left-short-approaching bottom-exit"/>
    </vehicle>
    <vehicle id="L4-CV-13" type="L4-CV-" depart="80.60">
        <route edges="top-approaching closed-lane remerging-lane left-exit"/>
    </vehicle>
    <vehicle id="L4-CV-14" type="L4-CV-" depart="86.80">
        <route edges="right-approaching top-exit"/>
    </vehicle>
    <vehicle id="L4-CV-15" type="L4-CV-" depart="93.00">
        <route edges="right-approaching top-exit"/>
    </vehicle>
    <vehicle id="L4-CV-16" type="L4-CV-Left-" depart="99.20">
        <route edges="left-long-approaching preparation"/>
    </vehicle>
    <vehicle id="L4-CV-17" type="L4-CV-Left-" depart="105.40">
        <route edges="left-long-approaching preparation"/>
    </vehicle>
    <vehicle id="L4-CV-18" type="L4-CV-" depart="111.60">
        <route edges="top-approaching bottom-exit"/>
    </vehicle>
    <vehicle id="L4-CV-20" type="L4-CV-" depart="124.00">
        <route edges="top-approaching closed-lane remerging-lane left-exit"/>
    </vehicle>
    <vehicle id="L4-CV-21" type="L4-CV-" depart="130.20">
        <route edges="right-approaching closed-lane remerging-lane left-exit"/>
    </vehicle>
    <vehicle id="L4-CV-22" type="L4-CV-" depart="136.40">
        <route edges="right-approaching closed-lane remerging-lane left-exit"/>
    </vehicle>
    <vehicle id="L4-CV-23" type="L4-CV-" depart="142.60">
        <route edges="left-long-approaching preparation left-short-approaching right-exit"/>
    </vehicle>
    <vehicle id="L4-CV-24" type="L4-CV-" depart="148.80">
        <route edges="right-approaching top-exit"/>
    </vehicle>
    <vehicle id="L4-CV-25" type="L4-CV-" depart="155.00">
        <route edges="right-approaching top-exit"/>
    </vehicle>
    <vehicle id="L4-CV-27" type="L4-CV-" depart="167.40">
        <route edges="right-approaching bottom-exit"/>
    </vehicle>
    <vehicle id="L4-CV-29" type="L4-CV-" depart="179.80">
        <route edges="top-approaching right-exit"/>
    </vehicle>
    <vehicle id="L4-CV-30" type="L4-CV-" depart="186.00">
        <route edges="right-approaching bottom-exit"/>
    </vehicle>
    <vehicle id="L4-CV-31" type="L4-CV-" depart="192.20">
        <route edges="top-approaching right-exit"/>
    </vehicle>
    <vehicle id="L4-CV-32" type="L4-CV-Right-" depart="198.40">
        <route edges="left-long-approaching preparation left-short-approaching bottom-exit"/>
    </vehicle>
    <vehicle id="L4-CV-34" type="L4-CV-" depart="210.80">
        <route edges="bottom-approaching top-exit"/>
    </vehicle>
    <vehicle id="L4-CV-35" type="L4-CV-Right-" depart="217.00">
        <route edges="left-long-approaching preparation left-short-approaching bottom-exit"/>
    </vehicle>
    <vehicle id="L4-CV-36" type="L4-CV-Left-" depart="223.20">
        <route edges="left-long-approaching preparation"/>
    </vehicle>
    <vehicle id="L4-CV-37" type="L4-CV-" depart="229.40">
        <route edges="top-approaching bottom-exit"/>
    </vehicle>
    <vehicle id="L4-CV-38" type="L4-CV-" depart="235.60">
        <route edges="right-approaching bottom-exit"/>
    </vehicle>
    <vehicle id="L4-CV-39" type="L4-CV-" depart="241.80">
        <route edges="right-approaching closed-lane remerging-lane left-exit"/>
    </vehicle>
    <vehicle id="L4-CV-41" type="L4-CV-" depart="254.20">
        <route edges="right-approaching top-exit"/>
    </vehicle>
    <vehicle id="L4-CV-42" type="L4-CV-Right-" depart="260.40">
        <route edges="left-long-approaching preparation left-short-approaching bottom-exit"/>
    </vehicle>
    <vehicle id="L4-CV-43" type="L4-CV-" depart="266.60">
        <route edges="right-approaching bottom-exit"/>
    </vehicle>
    <vehicle id="L4-CV-44" type="L4-CV-" depart="272.80">
        <route edges="bottom-approaching closed-lane remerging-lane left-exit"/>
    </vehicle>
    <vehicle id="L4-CV-45" type="L4-CV-" depart="279.00">
        <route edges="right-approaching bottom-exit"/>
    </vehicle>
    <vehicle id="L4-CV-46" type="L4-CV-" depart="285.20">
        <route edges="bottom-approaching top-exit"/>
    </vehicle>
    <vehicle id="L4-CV-47" type="L4-CV-Left-" depart="291.40">
        <route edges="left-long-approaching preparation"/>
    </vehicle>
    <vehicle id="L4-CV-48" type="L4-CV-" depart="297.60">
        <route edges="top-approaching closed-lane remerging-lane left-exit"/>
    </vehicle>
    <vehicle id="L4-CV-49" type="L4-CV-" depart="303.80">
        <route edges="left-long-approaching preparation left-short-approaching right-exit"/>
    </vehicle>
    <vehicle id="L4-CV-52" type="L4-CV-" depart="322.40">
        <route edges="top-approaching right-exit"/>
    </vehicle>
    <vehicle id="L4-CV-53" type="L4-CV-" depart="328.60">
        <route edges="left-long-approaching preparation left-short-approaching right-exit"/>
    </vehicle>
    <vehicle id="L4-CV-54" type="L4-CV-" depart="334.80">
        <route edges="bottom-approaching closed-lane remerging-lane left-exit"/>
    </vehicle>
    <vehicle id="L4-CV-55" type="L4-CV-" depart="341.00">
        <route edges="top-approaching right-exit"/>
    </vehicle>
    <vehicle id="L4-CV-56" type="L4-CV-" depart="347.20">
        <route edges="right-approaching bottom-exit"/>
    </vehicle>
    <vehicle id="L4-CV-57" type="L4-CV-" depart="353.40">
        <route edges="left-long-approaching preparation left-short-approaching right-exit"/>
    </vehicle>
    <vehicle id="L4-CV-58" type="L4-CV-" depart="359.60">
        <route edges="bottom-approaching right-exit"/>
    </vehicle>
    <vehicle id="L4-CV-59" type="L4-CV-" depart="365.80">
        <route edges="right-approaching bottom-exit"/>
    </vehicle>
    <vehicle id="L4-CV-60" type="L4-CV-" depart="372.00">
        <route edges="right-approaching closed-lane remerging-lane left-exit"/>
    </vehicle>
    <vehicle id="L4-CV-61" type="L4-CV-" depart="378.20">
        <route edges="right-approaching closed-lane remerging-lane left-exit"/>
    </vehicle>
    <vehicle id="L4-CV-64" type="L4-CV-" depart="396.80">
        <route edges="right-approaching top-exit"/>
    </vehicle>
    <vehicle id="L4-CV-66" type="L4-CV-" depart="409.20">
        <route edges="right-approaching closed-lane remerging-lane left-exit"/>
    </vehicle>
    <vehicle id="L4-CV-68" type="L4-CV-" depart="421.60">
        <route edges="left-long-approaching preparation left-short-approaching right-exit"/>
    </vehicle>
    <vehicle id="L4-CV-70" type="L4-CV-" depart="434.00">
        <route edges="top-approaching bottom-exit"/>
    </vehicle>
    <vehicle id="L4-CV-72" type="L4-CV-Right-" depart="446.40">
        <route edges="left-long-approaching preparation left-short-approaching bottom-exit"/>
    </vehicle>
    <vehicle id="L4-CV-73" type="L4-CV-" depart="452.60">
        <route edges="top-approaching bottom-exit"/>
    </vehicle>
    <vehicle id="L4-CV-74" type="L4-CV-" depart="458.80">
        <route edges="bottom-approaching closed-lane remerging-lane left-exit"/>
    </vehicle>
    <vehicle id="L4-CV-75" type="L4-CV-" depart="465.00">
        <route edges="right-approaching bottom-exit"/>
    </vehicle>
    <vehicle id="L4-CV-77" type="L4-CV-" depart="477.40">
        <route edges="top-approaching closed-lane remerging-lane left-exit"/>
    </vehicle>
    <vehicle id="L4-CV-78" type="L4-CV-" depart="483.60">
        <route edges="top-approaching bottom-exit"/>
    </vehicle>
    <vehicle id="L4-CV-79" type="L4-CV-" depart="489.80">
        <route edges="left-long-approaching preparation left-short-approaching right-exit"/>
    </vehicle>
    <vehicle id="L4-CV-80" type="L4-CV-" depart="496.00">
        <route edges="top-approaching closed-lane remerging-lane left-exit"/>
    </vehicle>
    <vehicle id="L4-CV-82" type="L4-CV-" depart="508.40">
        <route edges="right-approaching bottom-exit"/>
    </vehicle>
    <vehicle id="L4-CV-84" type="L4-CV-" depart="520.80">
        <route edges="bottom-approaching closed-lane remerging-lane left-exit"/>
    </vehicle>
    <vehicle id="L4-CV-85" type="L4-CV-" depart="527.00">
        <route edges="top-approaching right-exit"/>
    </vehicle>
    <vehicle id="L4-CV-86" type="L4-CV-" depart="533.20">
        <route edges="top-approaching closed-lane remerging-lane left-exit"/>
    </vehicle>
    <vehicle id="L4-CV-87" type="L4-CV-" depart="539.40">
        <route edges="bottom-approaching closed-lane remerging-lane left-exit"/>
    </vehicle>
    <vehicle id="L4-CV-88" type="L4-CV-" depart="545.60">
        <route edges="top-approaching closed-lane remerging-lane left-exit"/>
    </vehicle>
    <vehicle id="L4-CV-91" type="L4-CV-" depart="564.20">
        <route edges="top-approaching bottom-exit"/>
    </vehicle>
    <vehicle id="L4-CV-92" type="L4-CV-" depart="570.40">
        <route edges="bottom-approaching top-exit"/>
    </vehicle>
    <vehicle id="L4-CV-94" type="L4-CV-Left-" depart="582.80">
        <route edges="left-long-approaching preparation"/>
    </vehicle>
    <vehicle id="L4-CV-95" type="L4-CV-" depart="589.00">
        <route edges="top-approaching bottom-exit"/>
    </vehicle>
    <vehicle id="L4-CV-96" type="L4-CV-" depart="595.20">
        <route edges="right-approaching top-exit"/>
    </vehicle>
    <vehicle id="L4-CV-100" type="L4-CV-" depart="620.00">
        <route edges="right-approaching closed-lane remerging-lane left-exit"/>
    </vehicle>
    <vehicle id="L4-CV-101" type="L4-CV-" depart="626.20">
        <route edges="top-approaching bottom-exit"/>
    </vehicle>
    <vehicle id="L4-CV-102" type="L4-CV-" depart="632.40">
        <route edges="top-approaching right-exit"/>
    </vehicle>
    <vehicle id="L4-CV-104" type="L4-CV-" depart="644.80">
        <route edges="top-approaching right-exit"/>
    </vehicle>
    <vehicle id="L4-CV-105" type="L4-CV-" depart="651.00">
        <route edges="bottom-approaching right-exit"/>
    </vehicle>
    <vehicle id="L4-CV-106" type="L4-CV-" depart="657.20">
        <route edges="bottom-approaching closed-lane remerging-lane left-exit"/>
    </vehicle>
    <vehicle id="L4-CV-108" type="L4-CV-Left-" depart="669.60">
        <route edges="left-long-approaching preparation"/>
    </vehicle>
    <vehicle id="L4-CV-109" type="L4-CV-" depart="675.80">
        <route edges="right-approaching closed-lane remerging-lane left-exit"/>
    </vehicle>
    <vehicle id="L4-CV-110" type="L4-CV-Left-" depart="682.00">
        <route edges="left-long-approaching preparation"/>
    </vehicle>
    <vehicle id="L4-CV-111" type="L4-CV-Left-" depart="688.20">
        <route edges="left-long-approaching preparation"/>
    </vehicle>
    <vehicle id="L4-CV-112" type="L4-CV-Right-" depart="694.40">
        <route edges="left-long-approaching preparation left-short-approaching bottom-exit"/>
    </vehicle>
    <vehicle id="L4-CV-113" type="L4-CV-" depart="700.60">
        <route edges="right-approaching top-exit"/>
    </vehicle>
    <vehicle id="L4-CV-114" type="L4-CV-" depart="706.80">
        <route edges="bottom-approaching top-exit"/>
    </vehicle>
    <vehicle id="L4-CV-116" type="L4-CV-" depart="719.20">
        <route edges="top-approaching bottom-exit"/>
    </vehicle>
    <vehicle id="L4-CV-117" type="L4-CV-" depart="725.40">
        <route edges="right-approaching top-exit"/>
    </vehicle>
    <vehicle id="L4-CV-118" type="L4-CV-" depart="731.60">
        <route edges="bottom-approaching closed-lane remerging-lane left-exit"/>
    </vehicle>
    <vehicle id="L4-CV-119" type="L4-CV-" depart="737.80">
        <route edges="left-long-approaching preparation left-short-approaching right-exit"/>
    </vehicle>
    <vehicle id="L4-CV-121" type="L4-CV-" depart="750.20">
        <route edges="top-approaching bottom-exit"/>
    </vehicle>
    <vehicle id="L4-CV-127" type="L4-CV-" depart="787.40">
        <route edges="left-long-approaching preparation left-short-approaching right-exit"/>
    </vehicle>
    <vehicle id="L4-CV-128" type="L4-CV-" depart="793.60">
        <route edges="right-approaching closed-lane remerging-lane left-exit"/>
    </vehicle>
    <vehicle id="L4-CV-129" type="L4-CV-" depart="799.80">
        <route edges="bottom-approaching closed-lane remerging-lane left-exit"/>
    </vehicle>
    <vehicle id="L4-CV-130" type="L4-CV-" depart="806.00">
        <route edges="bottom-approaching right-exit"/>
    </vehicle>
    <vehicle id="L4-CV-131" type="L4-CV-" depart="812.20">
        <route edges="right-approaching closed-lane remerging-lane left-exit"/>
    </vehicle>
    <vehicle id="L4-CV-133" type="L4-CV-" depart="824.60">
        <route edges="left-long-approaching preparation left-short-approaching right-exit"/>
    </vehicle>
    <vehicle id="L4-CV-134" type="L4-CV-" depart="830.80">
        <route edges="top-approaching closed-lane remerging-lane left-exit"/>
    </vehicle>
    <vehicle id="L4-CV-135" type="L4-CV-" depart="837.00">
        <route edges="top-approaching right-exit"/>
    </vehicle>
    <vehicle id="L4-CV-137" type="L4-CV-" depart="849.40">
        <route edges="left-long-approaching preparation left-short-approaching right-exit"/>
    </vehicle>
    <vehicle id="L4-CV-138" type="L4-CV-" depart="855.60">
        <route edges="left-long-approaching preparation left-short-approaching right-exit"/>
    </vehicle>
    <vehicle id="L4-CV-139" type="L4-CV-Right-" depart="861.80">
        <route edges="left-long-approaching preparation left-short-approaching bottom-exit"/>
    </vehicle>
    <vehicle id="L4-CV-141" type="L4-CV-" depart="874.20">
        <route edges="bottom-approaching closed-lane remerging-lane left-exit"/>
    </vehicle>
    <vehicle id="L4-CV-142" type="L4-CV-Left-" depart="880.40">
        <route edges="left-long-approaching preparation"/>
    </vehicle>
    <vehicle id="L4-CV-143" type="L4-CV-" depart="886.60">
        <route edges="top-approaching closed-lane remerging-lane left-exit"/>
    </vehicle>
    <vehicle id="L4-CV-146" type="L4-CV-" depart="905.20">
        <route edges="bottom-approaching top-exit"/>
    </vehicle>
    <vehicle id="L4-CV-147" type="L4-CV-" depart="911.40">
        <route edges="right-approaching top-exit"/>
    </vehicle>
    <vehicle id="L4-CV-148" type="L4-CV-" depart="917.60">
        <route edges="top-approaching right-exit"/>
    </vehicle>
    <vehicle id="L4-CV-150" type="L4-CV-" depart="930.00">
        <route edges="bottom-approaching right-exit"/>
    </vehicle>
    <vehicle id="L4-CV-152" type="L4-CV-" depart="942.40">
        <route edges="top-approaching bottom-exit"/>
    </vehicle>
    <vehicle id="L4-CV-154" type="L4-CV-" depart="954.80">
        <route edges="top-approaching bottom-exit"/>
    </vehicle>
    <vehicle id="L4-CV-155" type="L4-CV-" depart="961.00">
        <route edges="bottom-approaching top-exit"/>
    </vehicle>
    <vehicle id="L4-CV-156" type="L4-CV-" depart="967.20">
        <route edges="bottom-approaching top-exit"/>
    </vehicle>
    <vehicle id="L4-CV-157" type="L4-CV-" depart="973.40">
        <route edges="right-approaching top-exit"/>
    </vehicle>
    <vehicle id="L4-CV-158" type="L4-CV-" depart="979.60">
        <route edges="top-approaching right-exit"/>
    </vehicle>
    <vehicle id="L4-CV-159" type="L4-CV-" depart="985.80">
        <route edges="top-approaching bottom-exit"/>
    </vehicle>
    <vehicle id="L4-CV-160" type="L4-CV-" depart="992.00">
        <route edges="top-approaching right-exit"/>
    </vehicle>
    <vehicle id="L4-CV-161" type="L4-CV-" depart="998.20">
        <route edges="right-approaching bottom-exit"/>
    </vehicle>
    <vehicle id="L4-CV-162" type="L4-CV-" depart="1004.40">
        <route edges="right-approaching top-exit"/>
    </vehicle>
    <vehicle id="L4-CV-163" type="L4-CV-" depart="1010.60">
        <route edges="bottom-approaching closed-lane remerging-lane left-exit"/>
    </vehicle>
    <vehicle id="L4-CV-164" type="L4-CV-" depart="1016.80">
        <route edges="right-approaching top-exit"/>
    </vehicle>
    <vehicle id="L4-CV-166" type="L4-CV-" depart="1029.20">
        <route edges="left-long-approaching preparation left-short-approaching right-exit"/>
    </vehicle>
    <vehicle id="L4-CV-167" type="L4-CV-" depart="1035.40">
        <route edges="top-approaching closed-lane remerging-lane left-exit"/>
    </vehicle>
    <vehicle id="L4-CV-171" type="L4-CV-" depart="1060.20">
        <route edges="top-approaching closed-lane remerging-lane left-exit"/>
    </vehicle>
    <vehicle id="L4-CV-172" type="L4-CV-" depart="1066.40">
        <route edges="right-approaching bottom-exit"/>
    </vehicle>
    <vehicle id="L4-CV-173" type="L4-CV-" depart="1072.60">
        <route edges="right-approaching top-exit"/>
    </vehicle>
    <vehicle id="L4-CV-175" type="L4-CV-" depart="1085.00">
        <route edges="left-long-approaching preparation left-short-approaching right-exit"/>
    </vehicle>
    <vehicle id="L4-CV-176" type="L4-CV-" depart="1091.20">
        <route edges="top-approaching bottom-exit"/>
    </vehicle>
    <vehicle id="L4-CV-177" type="L4-CV-" depart="1097.40">
        <route edges="bottom-approaching right-exit"/>
    </vehicle>
    <vehicle id="L4-CV-178" type="L4-CV-" depart="1103.60">
        <route edges="top-approaching right-exit"/>
    </vehicle>
    <vehicle id="L4-CV-179" type="L4-CV-" depart="1109.80">
        <route edges="left-long-approaching preparation left-short-approaching right-exit"/>
    </vehicle>
    <vehicle id="L4-CV-180" type="L4-CV-" depart="1116.00">
        <route edges="bottom-approaching closed-lane remerging-lane left-exit"/>
    </vehicle>
    <vehicle id="L4-CV-181" type="L4-CV-" depart="1122.20">
        <route edges="bottom-approaching right-exit"/>
    </vehicle>
    <vehicle id="L4-CV-182" type="L4-CV-Right-" depart="1128.40">
        <route edges="left-long-approaching preparation left-short-approaching bottom-exit"/>
    </vehicle>
    <vehicle id="L4-CV-183" type="L4-CV-" depart="1134.60">
        <route edges="right-approaching top-exit"/>
    </vehicle>
    <vehicle id="L4-CV-184" type="L4-CV-" depart="1140.80">
        <route edges="left-long-approaching preparation left-short-approaching right-exit"/>
    </vehicle>
    <vehicle id="L4-CV-185" type="L4-CV-Left-" depart="1147.00">
        <route edges="left-long-approaching preparation"/>
    </vehicle>
    <vehicle id="L4-CV-186" type="L4-CV-" depart="1153.20">
        <route edges="right-approaching closed-lane remerging-lane left-exit"/>
    </vehicle>
    <vehicle id="L4-CV-189" type="L4-CV-" depart="1171.80">
        <route edges="bottom-approaching closed-lane remerging-lane left-exit"/>
    </vehicle>
    <vehicle id="L4-CV-190" type="L4-CV-Left-" depart="1178.00">
        <route edges="left-long-approaching preparation"/>
    </vehicle>
    <vehicle id="L4-CV-191" type="L4-CV-" depart="1184.20">
        <route edges="bottom-approaching top-exit"/>
    </vehicle>
    <vehicle id="L4-CV-192" type="L4-CV-" depart="1190.40">
        <route edges="left-long-approaching preparation left-short-approaching right-exit"/>
    </vehicle>
    <vehicle id="L4-CV-193" type="L4-CV-Left-" depart="1196.60">
        <route edges="left-long-approaching preparation"/>
    </vehicle>
    <vehicle id="L4-CV-194" type="L4-CV-" depart="1202.80">
        <route edges="top-approaching right-exit"/>
    </vehicle>
    <vehicle id="L4-CV-195" type="L4-CV-" depart="1209.00">
        <route edges="left-long-approaching preparation left-short-approaching right-exit"/>
    </vehicle>
    <vehicle id="L4-CV-196" type="L4-CV-" depart="1215.20">
        <route edges="top-approaching closed-lane remerging-lane left-exit"/>
    </vehicle>
    <vehicle id="L4-CV-197" type="L4-CV-" depart="1221.40">
        <route edges="right-approaching top-exit"/>
    </vehicle>
    <vehicle id="L4-CV-198" type="L4-CV-Right-" depart="1227.60">
        <route edges="left-long-approaching preparation left-short-approaching bottom-exit"/>
    </vehicle>
    <vehicle id="L4-CV-199" type="L4-CV-" depart="1233.80">
        <route edges="bottom-approaching right-exit"/>
    </vehicle>
    <vehicle id="L4-CV-200" type="L4-CV-" depart="1240.00">
        <route edges="right-approaching top-exit"/>
    </vehicle>
    <vehicle id="L4-CV-201" type="L4-CV-" depart="1246.20">
        <route edges="top-approaching bottom-exit"/>
    </vehicle>
    <vehicle id="L4-CV-202" type="L4-CV-" depart="1252.40">
        <route edges="bottom-approaching closed-lane remerging-lane left-exit"/>
    </vehicle>
    <vehicle id="L4-CV-203" type="L4-CV-" depart="1258.60">
        <route edges="bottom-approaching right-exit"/>
    </vehicle>
    <vehicle id="L4-CV-205" type="L4-CV-Left-" depart="1271.00">
        <route edges="left-long-approaching preparation"/>
    </vehicle>
    <vehicle id="L4-CV-207" type="L4-CV-" depart="1283.40">
        <route edges="right-approaching bottom-exit"/>
    </vehicle>
    <vehicle id="L4-CV-208" type="L4-CV-" depart="1289.60">
        <route edges="bottom-approaching top-exit"/>
    </vehicle>
    <vehicle id="L4-CV-211" type="L4-CV-" depart="1308.20">
        <route edges="bottom-approaching closed-lane remerging-lane left-exit"/>
    </vehicle>
    <vehicle id="L4-CV-213" type="L4-CV-" depart="1320.60">
        <route edges="bottom-approaching right-exit"/>
    </vehicle>
    <vehicle id="L4-CV-214" type="L4-CV-" depart="1326.80">
        <route edges="top-approaching closed-lane remerging-lane left-exit"/>
    </vehicle>
    <vehicle id="L4-CV-215" type="L4-CV-" depart="1333.00">
        <route edges="right-approaching bottom-exit"/>
    </vehicle>
    <vehicle id="L4-CV-216" type="L4-CV-" depart="1339.20">
        <route edges="left-long-approaching preparation left-short-approaching right-exit"/>
    </vehicle>
    <vehicle id="L4-CV-217" type="L4-CV-" depart="1345.40">
        <route edges="bottom-approaching top-exit"/>
    </vehicle>
    <vehicle id="L4-CV-218" type="L4-CV-" depart="1351.60">
        <route edges="top-approaching bottom-exit"/>
    </vehicle>
    <vehicle id="L4-CV-219" type="L4-CV-" depart="1357.80">
        <route edges="top-approaching closed-lane remerging-lane left-exit"/>
    </vehicle>
    <vehicle id="L4-CV-221" type="L4-CV-" depart="1370.20">
        <route edges="left-long-approaching preparation left-short-approaching right-exit"/>
    </vehicle>
    <vehicle id="L4-CV-222" type="L4-CV-" depart="1376.40">
        <route edges="right-approaching top-exit"/>
    </vehicle>
    <vehicle id="L4-CV-223" type="L4-CV-Left-" depart="1382.60">
        <route edges="left-long-approaching preparation"/>
    </vehicle>
    <vehicle id="L4-CV-224" type="L4-CV-" depart="1388.80">
        <route edges="top-approaching right-exit"/>
    </vehicle>
    <vehicle id="L4-CV-225" type="L4-CV-" depart="1395.00">
        <route edges="right-approaching bottom-exit"/>
    </vehicle>
    <vehicle id="L4-CV-228" type="L4-CV-" depart="1413.60">
        <route edges="right-approaching bottom-exit"/>
    </vehicle>
    <vehicle id="L4-CV-230" type="L4-CV-" depart="1426.00">
        <route edges="bottom-approaching top-exit"/>
    </vehicle>
    <vehicle id="L4-CV-231" type="L4-CV-" depart="1432.20">
        <route edges="right-approaching bottom-exit"/>
    </vehicle>
    <vehicle id="L4-CV-232" type="L4-CV-" depart="1438.40">
        <route edges="top-approaching bottom-exit"/>
    </vehicle>
    <vehicle id="L4-CV-233" type="L4-CV-" depart="1444.60">
        <route edges="left-long-approaching preparation left-short-approaching right-exit"/>
    </vehicle>
    <vehicle id="L4-CV-235" type="L4-CV-" depart="1457.00">
        <route edges="right-approaching closed-lane remerging-lane left-exit"/>
    </vehicle>
    <vehicle id="L4-CV-236" type="L4-CV-Right-" depart="1463.20">
        <route edges="left-long-approaching preparation left-short-approaching bottom-exit"/>
    </vehicle>
    <vehicle id="L4-CV-237" type="L4-CV-" depart="1469.40">
        <route edges="bottom-approaching right-exit"/>
    </vehicle>
    <vehicle id="L4-CV-238" type="L4-CV-" depart="1475.60">
        <route edges="top-approaching right-exit"/>
    </vehicle>
    <vehicle id="L4-CV-239" type="L4-CV-" depart="1481.80">
        <route edges="right-approaching closed-lane remerging-lane left-exit"/>
    </vehicle>
    <vehicle id="L4-CV-241" type="L4-CV-" depart="1494.20">
        <route edges="top-approaching bottom-exit"/>
    </vehicle>
    <vehicle id="L4-CV-242" type="L4-CV-" depart="1500.40">
        <route edges="right-approaching bottom-exit"/>
    </vehicle>
    <vehicle id="L4-CV-243" type="L4-CV-" depart="1506.60">
        <route edges="top-approaching closed-lane remerging-lane left-exit"/>
    </vehicle>
    <vehicle id="L4-CV-245" type="L4-CV-" depart="1519.00">
        <route edges="right-approaching top-exit"/>
    </vehicle>
    <vehicle id="L4-CV-246" type="L4-CV-Left-" depart="1525.20">
        <route edges="left-long-approaching preparation"/>
    </vehicle>
    <vehicle id="L4-CV-247" type="L4-CV-" depart="1531.40">
        <route edges="bottom-approaching closed-lane remerging-lane left-exit"/>
    </vehicle>
    <vehicle id="L4-CV-249" type="L4-CV-" depart="1543.80">
        <route edges="top-approaching right-exit"/>
    </vehicle>
    <vehicle id="L4-CV-251" type="L4-CV-" depart="1556.20">
        <route edges="left-long-approaching preparation left-short-approaching right-exit"/>
    </vehicle>
    <vehicle id="L4-CV-252" type="L4-CV-" depart="1562.40">
        <route edges="top-approaching right-exit"/>
    </vehicle>
    <vehicle id="L4-CV-253" type="L4-CV-" depart="1568.60">
        <route edges="right-approaching bottom-exit"/>
    </vehicle>
    <vehicle id="L4-CV-254" type="L4-CV-Right-" depart="1574.80">
        <route edges="left-long-approaching preparation left-short-approaching bottom-exit"/>
    </vehicle>
    <vehicle id="L4-CV-256" type="L4-CV-" depart="1587.20">
        <route edges="bottom-approaching closed-lane remerging-lane left-exit"/>
    </vehicle>
    <vehicle id="L4-CV-257" type="L4-CV-" depart="1593.40">
        <route edges="top-approaching bottom-exit"/>
    </vehicle>
    <vehicle id="L4-CV-259" type="L4-CV-" depart="1605.80">
        <route edges="top-approaching closed-lane remerging-lane left-exit"/>
    </vehicle>
    <vehicle id="L4-CV-261" type="L4-CV-" depart="1618.20">
        <route edges="right-approaching top-exit"/>
    </vehicle>
    <vehicle id="L4-CV-262" type="L4-CV-" depart="1624.40">
        <route edges="right-approaching closed-lane remerging-lane left-exit"/>
    </vehicle>
    <vehicle id="L4-CV-263" type="L4-CV-" depart="1630.60">
        <route edges="top-approaching closed-lane remerging-lane left-exit"/>
    </vehicle>
    <vehicle id="L4-CV-265" type="L4-CV-" depart="1643.00">
        <route edges="bottom-approaching top-exit"/>
    </vehicle>
    <vehicle id="L4-CV-266" type="L4-CV-" depart="1649.20">
        <route edges="right-approaching closed-lane remerging-lane left-exit"/>
    </vehicle>
    <vehicle id="L4-CV-267" type="L4-CV-" depart="1655.40">
        <route edges="right-approaching closed-lane remerging-lane left-exit"/>
    </vehicle>
    <vehicle id="L4-CV-268" type="L4-CV-" depart="1661.60">
        <route edges="bottom-approaching right-exit"/>
    </vehicle>
    <vehicle id="L4-CV-270" type="L4-CV-" depart="1674.00">