<configuration>
    <input>
        <node-files value="RoadworksNode.nod.xml"/>
        <edge-files value="RoadworksEdge.edg.xml"/>
        <connection-files value="RoadworksConnection.con.xml"/>
        <opposites.guess  value ="true"/>
        <opposites.guess.fix-lengths  value ="true"/>
    </input>
    <output>
        <output-file value="RoadworksIntersection.net.xml"/>
    </output>
    <report>
        <verbose value="true"/>
    </report>
</configuration>