<?xml version="1.0" encoding="UTF-8"?>

<!-- generated on 02/25/21 14:58:57 by Eclipse SUMO netconvert Version 1.8.0
<configuration xmlns:xsi="http://www.w3.org/2001/XMLSchema-instance" xsi:noNamespaceSchemaLocation="http://sumo.dlr.de/xsd/netconvertConfiguration.xsd">

    <input>
        <node-files value="NetworkSetup/RoadworksNode.nod.xml"/>
        <edge-files value="NetworkSetup/RoadworksEdge.edg.xml"/>
        <connection-files value="NetworkSetup/RoadworksConnection.con.xml"/>
    </input>

    <output>
        <output-file value="RoadworksIntersection.net.xml"/>
    </output>

    <processing>
        <opposites.guess value="true"/>
        <opposites.guess.fix-lengths value="true"/>
    </processing>

    <junctions>
        <no-turnarounds value="true"/>
    </junctions>

    <report>
        <verbose value="true"/>
        <aggregate-warnings value="5"/>
    </report>

</configuration>
-->

<net version="1.6" junctionCornerDetail="5" limitTurnSpeed="5.50" xmlns:xsi="http://www.w3.org/2001/XMLSchema-instance" xsi:noNamespaceSchemaLocation="http://sumo.dlr.de/xsd/net_file.xsd">

    <location netOffset="500.00,500.00" convBoundary="0.00,0.00,1000.00,1000.00" origBoundary="-500.00,-500.00,500.00,500.00" projParameter="!"/>

    <edge id=":center_0" function="internal">
        <lane id=":center_0_0" index="0" speed="7.33" length="11.73" shape="492.00,513.60 491.65,509.75 490.60,507.00 488.85,505.35 486.40,504.80"/>
    </edge>
    <edge id=":center_1" function="internal">
        <lane id=":center_1_0" index="0" speed="16.67" length="27.43" shape="495.20,513.60 495.70,504.98 496.80,498.61 497.90,492.94 498.40,486.40"/>
    </edge>
    <edge id=":center_2" function="internal">
        <lane id=":center_2_0" index="0" speed="10.36" length="9.99" shape="498.40,513.60 499.35,506.95 501.04,504.14"/>
    </edge>
    <edge id=":center_12" function="internal">
        <lane id=":center_12_0" index="0" speed="10.36" length="14.52" shape="501.04,504.14 502.20,502.20 506.95,499.35 513.60,498.40"/>
    </edge>
    <edge id=":center_3" function="internal">
        <lane id=":center_3_0" index="0" speed="7.33" length="11.73" shape="513.60,508.00 509.75,508.35 507.00,509.40 505.35,511.15 504.80,513.60"/>
    </edge>
    <edge id=":center_4" function="internal">
        <lane id=":center_4_0" index="0" speed="16.67" length="27.43" shape="513.60,504.80 504.98,504.30 498.61,503.20 492.94,502.10 486.40,501.60"/>
    </edge>
    <edge id=":center_5" function="internal">
        <lane id=":center_5_0" index="0" speed="10.36" length="9.99" shape="513.60,501.60 506.95,500.65 504.14,498.96"/>
    </edge>
    <edge id=":center_13" function="internal">
        <lane id=":center_13_0" index="0" speed="10.36" length="14.52" shape="504.14,498.96 502.20,497.80 499.35,493.05 498.40,486.40"/>
    </edge>
    <edge id=":center_6" function="internal">
        <lane id=":center_6_0" index="0" speed="7.33" length="11.73" shape="508.00,486.40 508.35,490.25 509.40,493.00 511.15,494.65 513.60,495.20"/>
    </edge>
    <edge id=":center_7" function="internal">
        <lane id=":center_7_0" index="0" speed="16.67" length="27.43" shape="504.80,486.40 504.30,495.02 503.20,501.39 502.10,507.06 501.60,513.60"/>
    </edge>
    <edge id=":center_8" function="internal">
        <lane id=":center_8_0" index="0" speed="10.36" length="9.99" shape="501.60,486.40 500.65,493.05 498.96,495.86"/>
    </edge>
    <edge id=":center_14" function="internal">
        <lane id=":center_14_0" index="0" speed="10.36" length="14.52" shape="498.96,495.86 497.80,497.80 493.05,500.65 486.40,501.60"/>
    </edge>
    <edge id=":center_9" function="internal">
        <lane id=":center_9_0" index="0" speed="7.33" length="11.73" shape="486.40,492.00 490.25,491.65 493.00,490.60 494.65,488.85 495.20,486.40"/>
    </edge>
    <edge id=":center_10" function="internal">
        <lane id=":center_10_0" index="0" speed="16.67" length="27.43" shape="486.40,495.20 495.02,495.70 501.39,496.80 507.06,497.90 513.60,498.40"/>
    </edge>
    <edge id=":center_11" function="internal">
        <lane id=":center_11_0" index="0" speed="10.36" length="9.99" shape="486.40,498.40 493.05,499.35 495.86,501.04"/>
    </edge>
    <edge id=":center_15" function="internal">
        <lane id=":center_15_0" index="0" speed="10.36" length="14.52" shape="495.86,501.04 497.80,502.20 500.65,506.95 501.60,513.60"/>
    </edge>

    <edge id="bottom-approaching" from="bottom-node" to="center" priority="78">
        <lane id="bottom-approaching_0" index="0" speed="16.67" length="486.40" shape="508.00,0.00 508.00,486.40"/>
        <lane id="bottom-approaching_1" index="1" speed="16.67" length="486.40" shape="504.80,0.00 504.80,486.40"/>
        <lane id="bottom-approaching_2" index="2" speed="16.67" length="486.40" shape="501.60,0.00 501.60,486.40">
            <neigh lane="bottom-exit_1"/>
        </lane>
    </edge>
    <edge id="bottom-exit" from="center" to="bottom-node" priority="46">
        <lane id="bottom-exit_0" index="0" speed="16.67" length="486.40" shape="495.20,486.40 495.20,0.00"/>
        <lane id="bottom-exit_1" index="1" speed="16.67" length="486.40" shape="498.40,486.40 498.40,0.00">
            <neigh lane="bottom-approaching_2"/>
        </lane>
    </edge>
    <edge id="left-exit" from="center" to="left-node" priority="46">
        <lane id="left-exit_0" index="0" speed="16.67" length="486.40" shape="486.40,504.80 0.00,504.80"/>
        <lane id="left-exit_1" index="1" speed="16.67" length="486.40" shape="486.40,501.60 0.00,501.60">
            <neigh lane="left-long-approaching_2"/>
        </lane>
    </edge>
    <edge id="left-long-approaching" from="left-node" to="center" priority="78">
        <lane id="left-long-approaching_0" index="0" speed="16.67" length="486.40" shape="0.00,492.00 486.40,492.00"/>
        <lane id="left-long-approaching_1" index="1" speed="16.67" length="486.40" shape="0.00,495.20 486.40,495.20"/>
        <lane id="left-long-approaching_2" index="2" speed="16.67" length="486.40" shape="0.00,498.40 486.40,498.40">
            <neigh lane="left-exit_1"/>
        </lane>
    </edge>
    <edge id="right-approaching" from="right-node" to="center" priority="78">
        <lane id="right-approaching_0" index="0" speed="16.67" length="486.40" shape="1000.00,508.00 513.60,508.00"/>
        <lane id="right-approaching_1" index="1" speed="16.67" length="486.40" shape="1000.00,504.80 513.60,504.80"/>
        <lane id="right-approaching_2" index="2" speed="16.67" length="486.40" shape="1000.00,501.60 513.60,501.60">
            <neigh lane="right-exit_1"/>
        </lane>
    </edge>
    <edge id="right-exit" from="center" to="right-node" priority="46">
        <lane id="right-exit_0" index="0" speed="16.67" length="486.40" shape="513.60,495.20 1000.00,495.20"/>
        <lane id="right-exit_1" index="1" speed="16.67" length="486.40" shape="513.60,498.40 1000.00,498.40">
            <neigh lane="right-approaching_2"/>
        </lane>
    </edge>
    <edge id="top-approaching" from="top-node" to="center" priority="78">
        <lane id="top-approaching_0" index="0" speed="16.67" length="486.40" shape="492.00,1000.00 492.00,513.60"/>
        <lane id="top-approaching_1" index="1" speed="16.67" length="486.40" shape="495.20,1000.00 495.20,513.60"/>
        <lane id="top-approaching_2" index="2" speed="16.67" length="486.40" shape="498.40,1000.00 498.40,513.60">
            <neigh lane="top-exit_1"/>
        </lane>
    </edge>
    <edge id="top-exit" from="center" to="top-node" priority="46">
        <lane id="top-exit_0" index="0" speed="16.67" length="486.40" shape="504.80,513.60 504.80,1000.00"/>
        <lane id="top-exit_1" index="1" speed="16.67" length="486.40" shape="501.60,513.60 501.60,1000.00">
            <neigh lane="top-approaching_2"/>
        </lane>
    </edge>

    <tlLogic id="center" type="static" programID="0" offset="0">
        <phase duration="31" state="GGgrrrGGgrrr"/>
        <phase duration="4"  state="yygrrryygrrr"/>
        <phase duration="6"  state="rrGrrrrrGrrr"/>
        <phase duration="4"  state="rryrrrrryrrr"/>
        <phase duration="31" state="rrrGGgrrrGGg"/>
        <phase duration="4"  state="rrryygrrryyg"/>
        <phase duration="6"  state="rrrrrGrrrrrG"/>
        <phase duration="4"  state="rrrrryrrrrry"/>
    </tlLogic>

    <junction id="bottom-node" type="dead_end" x="500.00" y="0.00" incLanes="bottom-exit_0 bottom-exit_1" intLanes="" shape="500.00,0.00 493.60,0.00 500.00,0.00"/>
    <junction id="center" type="traffic_light" x="500.00" y="500.00" incLanes="top-approaching_0 top-approaching_1 top-approaching_2 right-approaching_0 right-approaching_1 right-approaching_2 bottom-approaching_0 bottom-approaching_1 bottom-approaching_2 left-long-approaching_0 left-long-approaching_1 left-long-approaching_2" intLanes=":center_0_0 :center_1_0 :center_12_0 :center_3_0 :center_4_0 :center_13_0 :center_6_0 :center_7_0 :center_14_0 :center_9_0 :center_10_0 :center_15_0" shape="490.40,513.60 506.40,513.60 507.20,511.38 508.20,510.60 509.60,510.04 511.40,509.71 513.60,509.60 513.60,493.60 511.38,492.80 510.60,491.80 510.04,490.40 509.71,488.60 509.60,486.40 493.60,486.40 492.80,488.62 491.80,489.40 490.40,489.96 488.60,490.29 486.40,490.40 486.40,506.40 488.62,507.20 489.40,508.20 489.96,509.60 490.29,511.40">
        <request index="0"  response="000000000000" foes="000000000000" cont="0"/>
        <request index="1"  response="100000100000" foes="110100110000" cont="0"/>
        <request index="2"  response="100010100000" foes="110010110000" cont="1"/>
        <request index="3"  response="000000000000" foes="000000000000" cont="0"/>
        <request index="4"  response="000110000110" foes="100110000110" cont="0"/>
        <request index="5"  response="010110000110" foes="010110000110" cont="1"/>
        <request index="6"  response="000000000000" foes="000000000000" cont="0"/>
        <request index="7"  response="100000100000" foes="110000110100" cont="0"/>
        <request index="8"  response="100000100010" foes="110000110010" cont="1"/>
        <request index="9"  response="000000000000" foes="000000000000" cont="0"/>
        <request index="10" response="000110000110" foes="000110100110" cont="0"/>
        <request index="11" response="000110010110" foes="000110010110" cont="1"/>
    </junction>
    <junction id="left-node" type="dead_end" x="0.00" y="500.00" incLanes="left-exit_0 left-exit_1" intLanes="" shape="0.00,500.00 0.00,506.40 0.00,500.00"/>
    <junction id="right-node" type="dead_end" x="1000.00" y="500.00" incLanes="right-exit_0 right-exit_1" intLanes="" shape="1000.00,500.00 1000.00,493.60 1000.00,500.00"/>
    <junction id="top-node" type="dead_end" x="500.00" y="1000.00" incLanes="top-exit_0 top-exit_1" intLanes="" shape="500.00,1000.00 506.40,1000.00 500.00,1000.00"/>

    <junction id=":center_12_0" type="internal" x="501.04" y="504.14" incLanes=":center_2_0 bottom-approaching_0 bottom-approaching_1" intLanes=":center_4_0 :center_5_0 :center_6_0 :center_7_0 :center_10_0 :center_11_0"/>
    <junction id=":center_13_0" type="internal" x="504.14" y="498.96" incLanes=":center_5_0 left-long-approaching_0 left-long-approaching_1" intLanes=":center_1_0 :center_2_0 :center_7_0 :center_8_0 :center_9_0 :center_10_0"/>
    <junction id=":center_14_0" type="internal" x="498.96" y="495.86" incLanes=":center_8_0 top-approaching_0 top-approaching_1" intLanes=":center_0_0 :center_1_0 :center_4_0 :center_5_0 :center_10_0 :center_11_0"/>
    <junction id=":center_15_0" type="internal" x="495.86" y="501.04" incLanes=":center_11_0 right-approaching_0 right-approaching_1" intLanes=":center_1_0 :center_2_0 :center_3_0 :center_4_0 :center_7_0 :center_8_0"/>

    <connection from="bottom-approaching" to="right-exit" fromLane="0" toLane="0" via=":center_6_0" tl="center" linkIndex="6" dir="r" state="O"/>
    <connection from="bottom-approaching" to="top-exit" fromLane="1" toLane="1" via=":center_7_0" tl="center" linkIndex="7" dir="s" state="O"/>
    <connection from="bottom-approaching" to="left-exit" fromLane="2" toLane="1" via=":center_8_0" tl="center" linkIndex="8" dir="l" state="o"/>
    <connection from="left-long-approaching" to="bottom-exit" fromLane="0" toLane="0" via=":center_9_0" tl="center" linkIndex="9" dir="r" state="O"/>
    <connection from="left-long-approaching" to="right-exit" fromLane="1" toLane="1" via=":center_10_0" tl="center" linkIndex="10" dir="s" state="o"/>
    <connection from="left-long-approaching" to="top-exit" fromLane="2" toLane="1" via=":center_11_0" tl="center" linkIndex="11" dir="l" state="o"/>
    <connection from="right-approaching" to="top-exit" fromLane="0" toLane="0" via=":center_3_0" tl="center" linkIndex="3" dir="r" state="O"/>
    <connection from="right-approaching" to="left-exit" fromLane="1" toLane="1" via=":center_4_0" tl="center" linkIndex="4" dir="s" state="o"/>
    <connection from="right-approaching" to="bottom-exit" fromLane="2" toLane="1" via=":center_5_0" tl="center" linkIndex="5" dir="l" state="o"/>
    <connection from="top-approaching" to="left-exit" fromLane="0" toLane="0" via=":center_0_0" tl="center" linkIndex="0" dir="r" state="O"/>
    <connection from="top-approaching" to="bottom-exit" fromLane="1" toLane="1" via=":center_1_0" tl="center" linkIndex="1" dir="s" state="O"/>
    <connection from="top-approaching" to="right-exit" fromLane="2" toLane="1" via=":center_2_0" tl="center" linkIndex="2" dir="l" state="o"/>

    <connection from=":center_0" to="left-exit" fromLane="0" toLane="0" dir="r" state="M"/>
    <connection from=":center_1" to="bottom-exit" fromLane="0" toLane="1" dir="s" state="M"/>
    <connection from=":center_2" to="right-exit" fromLane="0" toLane="1" via=":center_12_0" dir="l" state="m"/>
    <connection from=":center_12" to="right-exit" fromLane="0" toLane="1" dir="l" state="M"/>
    <connection from=":center_3" to="top-exit" fromLane="0" toLane="0" dir="r" state="M"/>
    <connection from=":center_4" to="left-exit" fromLane="0" toLane="1" dir="s" state="M"/>
    <connection from=":center_5" to="bottom-exit" fromLane="0" toLane="1" via=":center_13_0" dir="l" state="m"/>
    <connection from=":center_13" to="bottom-exit" fromLane="0" toLane="1" dir="l" state="M"/>
    <connection from=":center_6" to="right-exit" fromLane="0" toLane="0" dir="r" state="M"/>
    <connection from=":center_7" to="top-exit" fromLane="0" toLane="1" dir="s" state="M"/>
    <connection from=":center_8" to="left-exit" fromLane="0" toLane="1" via=":center_14_0" dir="l" state="m"/>
    <connection from=":center_14" to="left-exit" fromLane="0" toLane="1" dir="l" state="M"/>
    <connection from=":center_9" to="bottom-exit" fromLane="0" toLane="0" dir="r" state="M"/>
    <connection from=":center_10" to="right-exit" fromLane="0" toLane="1" dir="s" state="M"/>
    <connection from=":center_11" to="top-exit" fromLane="0" toLane="1" via=":center_15_0" dir="l" state="m"/>
    <connection from=":center_15" to="top-exit" fromLane="0" toLane="1" dir="l" state="M"/>

</net>
