<configuration>
    <input>
        <net-file value="RoadworksIntersection.net.xml"/>
        <route-files value="RoadworksRoutes.rou.xml"/>
        <additional-files value="RoadworksAdditional.add.xml"/>
        
    </input>
    <time>
        <begin value="0" />
        <step-length value="0.1" />
    </time>
    <processing>
        <default.action-step-length value="0.1"/>
    </processing>
</configuration>