<additional>
  <tlLogic id="center" type="actuated" programID="my_program" offset="10">
  	<param key="max-gap" value="3.0"/>
  	<param key="detector-gap" value="2.0"/>
  	<param key="passing-time" value="2.0"/>
  	<param key="vTypes" value=""/>
  	<param key="show-detectors" value="true"/>
  	<param key="file" value="NULL"/>
  	<param key="freq" value="300"/>

   	<phase duration="10" minDur="8" maxDur="12" state="GGGrrrrrrrrrr"/>
	<phase duration="5" minDur="4" maxDur="6" state="GGyrrrrrrrrrr"/>
	<phase duration="8" minDur="5" maxDur="10" state="GGrrrrGGsrrrr"/>

	<phase duration="5" minDur="6" maxDur="4" state="yyrrrrGGsrrrr"/>
	<phase duration="10" minDur="8" maxDur="12" state="rrrrrrGGGrrrr"/>
	<phase duration="5" minDur="4" maxDur="6" state="rrrrrryyyrrrr"/> 

	<phase duration="10" minDur="8" maxDur="12" state="rrrGGGrrrrrrr"/>
	<phase duration="5" minDur="4" maxDur="6" state="rrrGGyrrrrrrr"/>
	<phase duration="8" minDur="5" maxDur="10" state="rrrGGrrrrGGss"/>  
	
	<phase duration="5" minDur="4" maxDur="6"  state="rrryyrrrrGGss"/>
	<phase duration="10" minDur="8" maxDur="12" state="rrrrrrrrrGGGG"/>
	<phase duration="5" minDur="4" maxDur="6" state="rrrrrrrrryyyy"/>
	
	<phase duration="10" minDur="10" maxDur="10" state="rrrrrrrrrrrrr"/>

 </tlLogic>

<rerouter id="123" edges="closed-lane">
	<interval begin="0" end="1000">
    	<closingLaneReroute id="closed-lane_0" >
	  		<param key="closingLaneReroute" value="true"/> 
		</closingLaneReroute>
	</interval>

	<interval begin="0" end="1000">
    	<closingLaneReroute id="closed-lane_1" >
	  		<param key="closingLaneReroute" value="true"/> 
		</closingLaneReroute>
	</interval>
</rerouter>

<rerouter id="123" edges="closed-lane">
	<interval begin="0" end="1000">
 		<closingLaneReroute id="closed-lane_2" allow="passenger">
	  		<param key="closingLaneReroute" value="true"/> 
	  	</closingLaneReroute>
	</interval>
</rerouter>

<rerouter id="123" edges="left-short-approaching">
	<interval begin="0" end="1000">
		<closingLaneReroute id="left-short-approaching_1" allow="passenger" >
			<param key="closingLaneReroute" value="true"/> 
		</closingLaneReroute>
   	</interval>
</rerouter>



<vTypeDistribution id="exampleDist">
        <vType id="exampleDist0" sigma="0.323" tau="0.500" decel="4.500" accel="1.862" emergencyDecel="9.000" lcAssertive="1.151" param="has.toc.device" 
actionStepLength="0.100" speedFactor="1.200" vClass="passenger" carFollowModel="Krauss" color="green"/>
        <vType id="exampleDist1" sigma="0.000" tau="1.469" decel="3.175" accel="3.182" emergencyDecel="9.000" lcAssertive="1.275" param="has.toc.device" 
actionStepLength="0.100" speedFactor="1.200" vClass="passenger" carFollowModel="Krauss" color="green"/>
        <vType id="exampleDist2" sigma="1.000" tau="0.500" decel="4.500" accel="3.468" emergencyDecel="9.000" lcAssertive="1.218" param="has.toc.device" 
actionStepLength="0.100" speedFactor="0.969" vClass="passenger" carFollowModel="Krauss" color="green"/>
        <vType id="exampleDist3" sigma="0.000" tau="0.500" decel="3.866" accel="1.718" emergencyDecel="9.000" lcAssertive="1.232" param="has.toc.device" 
actionStepLength="0.100" speedFactor="0.800" vClass="passenger" carFollowModel="Krauss" color="green"/>
        <vType id="exampleDist4" sigma="0.000" tau="0.755" decel="3.068" accel="2.942" emergencyDecel="9.000" lcAssertive="1.222" param="has.toc.device" 
actionStepLength="0.100" speedFactor="1.200" vClass="passenger" carFollowModel="Krauss" color="green"/>
        <vType id="exampleDist5" sigma="0.000" tau="0.671" decel="4.500" accel="1.779" emergencyDecel="9.000" lcAssertive="1.110" param="has.toc.device" 
actionStepLength="0.100" speedFactor="1.200" vClass="passenger" carFollowModel="Krauss" color="green"/>
        <vType id="exampleDist6" sigma="0.000" tau="0.937" decel="2.386" accel="1.000" emergencyDecel="9.000" lcAssertive="1.114" param="has.toc.device" 
actionStepLength="0.100" speedFactor="1.200" vClass="passenger" carFollowModel="Krauss" color="green"/>
        <vType id="exampleDist7" sigma="0.201" tau="0.500" decel="3.721" accel="2.978" emergencyDecel="9.000" lcAssertive="1.251" param="has.toc.device" 
actionStepLength="0.100" speedFactor="1.030" vClass="passenger" carFollowModel="Krauss" color="green"/>
        <vType id="exampleDist8" sigma="0.000" tau="0.862" decel="3.406" accel="1.833" emergencyDecel="9.000" lcAssertive="1.212" param="has.toc.device" 
actionStepLength="0.100" speedFactor="0.951" vClass="passenger" carFollowModel="Krauss" color="green"/>
        <vType id="exampleDist9" sigma="0.090" tau="0.500" decel="2.825" accel="1.406" emergencyDecel="9.000" lcAssertive="1.100" param="has.toc.device" 
actionStepLength="0.100" speedFactor="0.828" vClass="passenger" carFollowModel="Krauss" color="green"/>
    </vTypeDistribution>

<!-- <e1Detector id="det_0" lane="left-long-approaching_2" pos="420" freq="10" file="left-approaching.out.xml"/>
<e1Detector id="det_1" lane="left-long-approaching_2" pos="420" freq="10" file="left-approaching.out.xml"/>
<e1Detector id="det_0" lane="left-long-approaching_2" pos="420" freq="10" file="left-approaching.out.xml"/> -->

</additional>