<nodes>
<node id="center" x="0" y="0" type="traffic_light"/>
<node id="left-node" x="-500" y="0" type="priority"/>
<node id="top-node" x="0" y="500" type="priority"/>
<node id="right-node" x="500" y="0" type="priority"/>
<node id="bottom-node" x="0" y="-500" type="priority"/>

<node id="blockage-end" x="-30" y="0" type="priority" />

<node id="adjacent-end" x="-45" y="0" type="priority" />


<!-- <node id="overtaking-start" x="0" y="-200" type="priority" />
<node id="overtaking-end" x="0" y="-250" type="priority" /> -->

</nodes>