<configuration>
    <input>
        <net-file value="RoadworksIntersection.net.xml"/>
        <route-files value="RoadworksRoutes.rou.xml"/>
        <additional-files value="RoadworksAdditional.add.xml"/>
    </input>
</configuration>