<configuration>
    <input>
        <net-file value="RoadworksIntersection.net.xml"/>
        <route-files value="Route-Files/L4-CV-Route.rou.xml, Route-Files/L2-CV-Route.rou.xml, Route-Files/L4-Non-CV-Route.rou.xml, 
        Route-Files/L2-Non-CV-Route.rou.xml, Route-Files/L0-HDV-Route.rou.xml"/>
        <additional-files value="Additional-Files/Roadworks-Detectors.add.xml, Additional-Files/Roadworks-Rerouters.add.xml, 
        Additional-Files/Roadworks-Traffic-lights.add.xml, ../PreparingVehicleModels/VehicleModels/L4-CV.add.xml, 
        ../PreparingVehicleModels/VehicleModels/L2-CV.add.xml, ../PreparingVehicleModels/VehicleModels/L0-HDV.add.xml, 
        ../PreparingVehicleModels/VehicleModels/L2-Non-CV.add.xml, ../PreparingVehicleModels/VehicleModels/L4-Non-CV.add.xml"/>    
    </input>
    <time>
        <begin value="0" />
        <step-length value="0.1" />
    </time>
    <processing>
        <default.action-step-length value="0.1"/>
    </processing>
</configuration>