<?xml version="1.0" encoding="UTF-8"?>

<!-- generated on 03/29/21 19:54:29 by Eclipse SUMO netconvert Version 1.8.0
<configuration xmlns:xsi="http://www.w3.org/2001/XMLSchema-instance" xsi:noNamespaceSchemaLocation="http://sumo.dlr.de/xsd/netconvertConfiguration.xsd">

    <input>
        <node-files value="NetworkSetup/RoadworksNode.nod.xml"/>
        <edge-files value="NetworkSetup/RoadworksEdge.edg.xml"/>
        <connection-files value="NetworkSetup/RoadworksConnection.con.xml"/>
    </input>

    <output>
        <output-file value="RoadworksIntersection.net.xml"/>
    </output>

    <processing>
        <opposites.guess value="true"/>
        <opposites.guess.fix-lengths value="true"/>
    </processing>

    <junctions>
        <no-turnarounds value="true"/>
    </junctions>

    <report>
        <verbose value="true"/>
        <aggregate-warnings value="5"/>
    </report>

</configuration>
-->

<net version="1.6" junctionCornerDetail="5" limitTurnSpeed="5.50" xmlns:xsi="http://www.w3.org/2001/XMLSchema-instance" xsi:noNamespaceSchemaLocation="http://sumo.dlr.de/xsd/net_file.xsd">

    <location netOffset="500.00,500.00" convBoundary="0.00,0.00,1000.00,1000.00" origBoundary="-500.00,-500.00,500.00,500.00" projParameter="!"/>

    <edge id=":adjacent-end_0" function="internal">
        <lane id=":adjacent-end_0_0" index="0" speed="13.89" length="8.81" shape="439.00,508.00 436.54,507.50 435.00,506.40 433.46,505.30 431.00,504.80"/>
        <lane id=":adjacent-end_0_1" index="1" speed="13.89" length="8.81" shape="439.00,504.80 436.54,504.30 435.00,503.20 433.46,502.10 431.00,501.60"/>
    </edge>
    <edge id=":adjacent-end_2" function="internal">
        <lane id=":adjacent-end_2_0" index="0" speed="13.89" length="8.81" shape="431.00,492.00 433.46,492.50 435.00,493.60 436.54,494.70 439.00,495.20"/>
        <lane id=":adjacent-end_2_1" index="1" speed="13.89" length="8.81" shape="431.00,495.20 433.46,495.70 435.00,496.80 436.54,497.90 439.00,498.40"/>
    </edge>
    <edge id=":blockage-end_0" function="internal">
        <lane id=":blockage-end_0_0" index="0" speed="11.11" length="3.20" shape="450.00,501.60 450.00,504.80"/>
    </edge>
    <edge id=":center_0" function="internal">
        <lane id=":center_0_0" index="0" speed="8.10" length="14.57" shape="492.00,513.60 491.65,508.35 490.60,504.60 488.85,502.35 486.40,501.60"/>
    </edge>
    <edge id=":center_1" function="internal">
        <lane id=":center_1_0" index="0" speed="16.67" length="24.27" shape="495.20,513.60 495.70,506.15 496.80,500.81 497.90,495.87 498.40,489.60"/>
    </edge>
    <edge id=":center_2" function="internal">
        <lane id=":center_2_0" index="0" speed="10.36" length="10.41" shape="498.40,513.60 499.35,506.95 501.25,503.78"/>
    </edge>
    <edge id=":center_13" function="internal">
        <lane id=":center_13_0" index="0" speed="10.36" length="14.10" shape="501.25,503.78 502.20,502.20 506.95,499.35 513.60,498.40"/>
    </edge>
    <edge id=":center_3" function="internal">
        <lane id=":center_3_0" index="0" speed="7.33" length="11.73" shape="513.60,508.00 509.75,508.35 507.00,509.40 505.35,511.15 504.80,513.60"/>
    </edge>
    <edge id=":center_4" function="internal">
        <lane id=":center_4_0" index="0" speed="13.89" length="27.45" shape="513.60,504.80 505.50,504.30 500.00,503.20 494.50,502.10 486.40,501.60"/>
    </edge>
    <edge id=":center_5" function="internal">
        <lane id=":center_5_0" index="0" speed="9.84" length="8.68" shape="513.60,501.60 506.95,500.85 505.16,500.00"/>
    </edge>
    <edge id=":center_14" function="internal">
        <lane id=":center_14_0" index="0" speed="9.84" length="13.32" shape="505.16,500.00 502.20,498.60 499.35,494.85 498.40,489.60"/>
    </edge>
    <edge id=":center_6" function="internal">
        <lane id=":center_6_0" index="0" speed="6.51" length="9.03" shape="508.00,489.60 508.35,492.05 509.40,493.80 511.15,494.85 513.60,495.20"/>
    </edge>
    <edge id=":center_7" function="internal">
        <lane id=":center_7_0" index="0" speed="16.67" length="24.27" shape="504.80,489.60 504.30,497.05 503.20,502.39 502.10,507.33 501.60,513.60"/>
    </edge>
    <edge id=":center_8" function="internal">
        <lane id=":center_8_0" index="0" speed="9.84" length="7.40" shape="501.60,489.60 500.65,494.85 499.40,496.50"/>
    </edge>
    <edge id=":center_15" function="internal">
        <lane id=":center_15_0" index="0" speed="9.84" length="14.59" shape="499.40,496.50 497.80,498.60 493.05,500.85 486.40,501.60"/>
    </edge>
    <edge id=":center_9" function="internal">
        <lane id=":center_9_0" index="0" speed="7.33" length="11.73" shape="486.40,495.20 490.25,494.85 493.00,493.80 494.65,492.05 495.20,489.60"/>
    </edge>
    <edge id=":center_10" function="internal">
        <lane id=":center_10_0" index="0" speed="13.89" length="27.20" shape="486.40,495.20 513.60,495.20"/>
        <lane id=":center_10_1" index="1" speed="13.89" length="27.20" shape="486.40,498.40 513.60,498.40"/>
    </edge>
    <edge id=":center_12" function="internal">
        <lane id=":center_12_0" index="0" speed="10.36" length="9.13" shape="486.40,498.40 493.05,499.35 495.12,500.59"/>
    </edge>
    <edge id=":center_16" function="internal">
        <lane id=":center_16_0" index="0" speed="10.36" length="15.38" shape="495.12,500.59 497.80,502.20 500.65,506.95 501.60,513.60"/>
    </edge>
    <edge id=":preparation_0" function="internal">
        <lane id=":preparation_0_0" index="0" speed="16.67" length="0.10" shape="200.00,492.00 200.00,492.00"/>
        <lane id=":preparation_0_1" index="1" speed="16.67" length="0.10" shape="200.00,495.20 200.00,495.20"/>
        <lane id=":preparation_0_2" index="2" speed="16.67" length="0.10" shape="200.00,498.40 200.00,498.40"/>
    </edge>

    <edge id="bottom-approaching" from="bottom-node" to="center" priority="78">
        <lane id="bottom-approaching_0" index="0" speed="16.67" length="489.60" shape="508.00,0.00 508.00,489.60"/>
        <lane id="bottom-approaching_1" index="1" speed="16.67" length="489.60" shape="504.80,0.00 504.80,489.60"/>
        <lane id="bottom-approaching_2" index="2" speed="16.67" length="489.60" shape="501.60,0.00 501.60,489.60">
            <neigh lane="bottom-exit_1"/>
        </lane>
    </edge>
    <edge id="bottom-exit" from="center" to="bottom-node" priority="46">
        <lane id="bottom-exit_0" index="0" speed="16.67" length="489.60" shape="495.20,489.60 495.20,0.00"/>
        <lane id="bottom-exit_1" index="1" speed="16.67" length="489.60" shape="498.40,489.60 498.40,0.00">
            <neigh lane="bottom-approaching_2"/>
        </lane>
    </edge>
    <edge id="closed-lane" from="center" to="blockage-end" priority="46">
        <lane id="closed-lane_0" index="0" speed="11.11" length="36.40" shape="486.40,508.00 450.00,508.00"/>
        <lane id="closed-lane_1" index="1" speed="11.11" length="36.40" shape="486.40,504.80 450.00,504.80"/>
        <lane id="closed-lane_2" index="2" speed="11.11" length="36.40" shape="486.40,501.60 450.00,501.60"/>
    </edge>
    <edge id="left-exit" from="adjacent-end" to="left-node" priority="46">
        <lane id="left-exit_0" index="0" speed="16.67" length="431.00" shape="431.00,504.80 0.00,504.80"/>
        <lane id="left-exit_1" index="1" speed="16.67" length="431.00" shape="431.00,501.60 0.00,501.60"/>
    </edge>
    <edge id="left-long-approaching" from="left-node" to="preparation" priority="78">
        <lane id="left-long-approaching_0" index="0" speed="16.67" length="200.00" shape="0.00,492.00 200.00,492.00"/>
        <lane id="left-long-approaching_1" index="1" speed="16.67" length="200.00" shape="0.00,495.20 200.00,495.20"/>
        <lane id="left-long-approaching_2" index="2" speed="16.67" length="200.00" shape="0.00,498.40 200.00,498.40"/>
    </edge>
    <edge id="left-short-approaching" from="adjacent-end" to="center" priority="78">
        <lane id="left-short-approaching_0" index="0" speed="11.11" length="47.40" shape="439.00,495.20 486.40,495.20"/>
        <lane id="left-short-approaching_1" index="1" speed="11.11" length="47.40" shape="439.00,498.40 486.40,498.40"/>
    </edge>
    <edge id="preparation" from="preparation" to="adjacent-end" priority="78">
        <lane id="preparation_0" index="0" speed="16.67" length="231.00" shape="200.00,492.00 431.00,492.00"/>
        <lane id="preparation_1" index="1" speed="16.67" length="231.00" shape="200.00,495.20 431.00,495.20"/>
        <lane id="preparation_2" index="2" speed="16.67" length="231.00" shape="200.00,498.40 431.00,498.40"/>
    </edge>
    <edge id="remerging-lane" from="blockage-end" to="adjacent-end" priority="46">
        <lane id="remerging-lane_0" index="0" speed="11.11" length="11.00" shape="450.00,508.00 439.00,508.00"/>
        <lane id="remerging-lane_1" index="1" speed="11.11" length="11.00" shape="450.00,504.80 439.00,504.80"/>
        <lane id="remerging-lane_2" index="2" speed="11.11" length="11.00" shape="450.00,501.60 439.00,501.60"/>
    </edge>
    <edge id="right-approaching" from="right-node" to="center" priority="78">
        <lane id="right-approaching_0" index="0" speed="16.67" length="486.40" shape="1000.00,508.00 513.60,508.00"/>
        <lane id="right-approaching_1" index="1" speed="16.67" length="486.40" shape="1000.00,504.80 513.60,504.80"/>
        <lane id="right-approaching_2" index="2" speed="16.67" length="486.40" shape="1000.00,501.60 513.60,501.60">
            <neigh lane="right-exit_1"/>
        </lane>
    </edge>
    <edge id="right-exit" from="center" to="right-node" priority="46">
        <lane id="right-exit_0" index="0" speed="16.67" length="486.40" shape="513.60,495.20 1000.00,495.20"/>
        <lane id="right-exit_1" index="1" speed="16.67" length="486.40" shape="513.60,498.40 1000.00,498.40">
            <neigh lane="right-approaching_2"/>
        </lane>
    </edge>
    <edge id="top-approaching" from="top-node" to="center" priority="78">
        <lane id="top-approaching_0" index="0" speed="16.67" length="486.40" shape="492.00,1000.00 492.00,513.60"/>
        <lane id="top-approaching_1" index="1" speed="16.67" length="486.40" shape="495.20,1000.00 495.20,513.60"/>
        <lane id="top-approaching_2" index="2" speed="16.67" length="486.40" shape="498.40,1000.00 498.40,513.60">
            <neigh lane="top-exit_1"/>
        </lane>
    </edge>
    <edge id="top-exit" from="center" to="top-node" priority="46">
        <lane id="top-exit_0" index="0" speed="16.67" length="486.40" shape="504.80,513.60 504.80,1000.00"/>
        <lane id="top-exit_1" index="1" speed="16.67" length="486.40" shape="501.60,513.60 501.60,1000.00">
            <neigh lane="top-approaching_2"/>
        </lane>
    </edge>

    <tlLogic id="center" type="static" programID="0" offset="0">
        <phase duration="31" state="GGgrrrGGgrrrr"/>
        <phase duration="4"  state="yygrrryygrrrr"/>
        <phase duration="6"  state="rrGrrrrrGrrrr"/>
        <phase duration="4"  state="rryrrrrryrrrr"/>
        <phase duration="31" state="rrrGGgrrrGGGg"/>
        <phase duration="4"  state="rrryygrrryyyg"/>
        <phase duration="6"  state="rrrrrGrrrrrrG"/>
        <phase duration="4"  state="rrrrryrrrrrry"/>
    </tlLogic>

    <junction id="adjacent-end" type="priority" x="435.00" y="500.00" incLanes="remerging-lane_0 remerging-lane_1 remerging-lane_2 preparation_0 preparation_1 preparation_2" intLanes=":adjacent-end_0_0 :adjacent-end_0_1 :adjacent-end_2_0 :adjacent-end_2_1" shape="439.00,509.60 439.00,493.60 435.97,492.77 434.03,491.23 432.79,490.64 431.00,490.40 431.00,506.40 434.03,507.23 435.97,508.77 437.21,509.36">
        <request index="0" response="0000" foes="0000" cont="0"/>
        <request index="1" response="0000" foes="0000" cont="0"/>
        <request index="2" response="0000" foes="0000" cont="0"/>
        <request index="3" response="0000" foes="0000" cont="0"/>
    </junction>
    <junction id="blockage-end" type="priority" x="450.00" y="500.00" incLanes="closed-lane_0 closed-lane_1 closed-lane_2" intLanes=":blockage-end_0_0" shape="450.00,509.60 450.00,500.00 450.00,509.60">
        <request index="0" response="0" foes="0" cont="0"/>
    </junction>
    <junction id="bottom-node" type="dead_end" x="500.00" y="0.00" incLanes="bottom-exit_0 bottom-exit_1" intLanes="" shape="500.00,0.00 493.60,0.00 500.00,0.00"/>
    <junction id="center" type="traffic_light" x="500.00" y="500.00" incLanes="top-approaching_0 top-approaching_1 top-approaching_2 right-approaching_0 right-approaching_1 right-approaching_2 bottom-approaching_0 bottom-approaching_1 bottom-approaching_2 left-short-approaching_0 left-short-approaching_1" intLanes=":center_0_0 :center_1_0 :center_13_0 :center_3_0 :center_4_0 :center_14_0 :center_6_0 :center_7_0 :center_15_0 :center_9_0 :center_10_0 :center_10_1 :center_16_0" shape="490.40,513.60 506.40,513.60 507.20,511.38 508.20,510.60 509.60,510.04 511.40,509.71 513.60,509.60 513.60,493.60 511.38,493.16 510.60,492.60 510.04,491.82 509.71,490.82 509.60,489.60 493.60,489.60 492.80,491.82 491.80,492.60 490.40,493.16 488.60,493.49 486.40,493.60 486.40,509.60 488.62,510.04 489.40,510.60 489.96,511.38 490.29,512.38">
        <request index="0"  response="0000000000000" foes="0000100010000" cont="0"/>
        <request index="1"  response="1000000100000" foes="1110100110000" cont="0"/>
        <request index="2"  response="1000010100000" foes="1110010110000" cont="1"/>
        <request index="3"  response="0000000000000" foes="0000000000000" cont="0"/>
        <request index="4"  response="0000110000111" foes="1000110000111" cont="0"/>
        <request index="5"  response="0110110000110" foes="0110110000110" cont="1"/>
        <request index="6"  response="0000000000000" foes="0110000000000" cont="0"/>
        <request index="7"  response="1000000100000" foes="1110000110100" cont="0"/>
        <request index="8"  response="1000000100011" foes="1110000110011" cont="1"/>
        <request index="9"  response="0000000000000" foes="0000000000000" cont="0"/>
        <request index="10" response="0000111000110" foes="0000111100110" cont="0"/>
        <request index="11" response="0000111000110" foes="0000111100110" cont="0"/>
        <request index="12" response="0000110010110" foes="0000110010110" cont="1"/>
    </junction>
    <junction id="left-node" type="dead_end" x="0.00" y="500.00" incLanes="left-exit_0 left-exit_1" intLanes="" shape="0.00,500.00 0.00,506.40 0.00,500.00"/>
    <junction id="preparation" type="priority" x="200.00" y="500.00" incLanes="left-long-approaching_0 left-long-approaching_1 left-long-approaching_2" intLanes=":preparation_0_0 :preparation_0_1 :preparation_0_2" shape="200.00,500.00 200.00,490.40 200.00,500.00">
        <request index="0" response="000" foes="000" cont="0"/>
        <request index="1" response="000" foes="000" cont="0"/>
        <request index="2" response="000" foes="000" cont="0"/>
    </junction>
    <junction id="right-node" type="dead_end" x="1000.00" y="500.00" incLanes="right-exit_0 right-exit_1" intLanes="" shape="1000.00,500.00 1000.00,493.60 1000.00,500.00"/>
    <junction id="top-node" type="dead_end" x="500.00" y="1000.00" incLanes="top-exit_0 top-exit_1" intLanes="" shape="500.00,1000.00 506.40,1000.00 500.00,1000.00"/>

    <junction id=":center_13_0" type="internal" x="501.25" y="503.78" incLanes=":center_2_0 bottom-approaching_0 bottom-approaching_1" intLanes=":center_4_0 :center_5_0 :center_6_0 :center_7_0 :center_10_0 :center_10_1 :center_12_0"/>
    <junction id=":center_14_0" type="internal" x="505.16" y="500.00" incLanes=":center_5_0 left-short-approaching_0 left-short-approaching_1" intLanes=":center_1_0 :center_2_0 :center_7_0 :center_8_0 :center_9_0 :center_10_0 :center_10_1"/>
    <junction id=":center_15_0" type="internal" x="499.40" y="496.50" incLanes=":center_8_0 top-approaching_0 top-approaching_1" intLanes=":center_0_0 :center_1_0 :center_4_0 :center_5_0 :center_10_0 :center_10_1 :center_12_0"/>
    <junction id=":center_16_0" type="internal" x="495.12" y="500.59" incLanes=":center_12_0 right-approaching_0 right-approaching_1" intLanes=":center_1_0 :center_2_0 :center_3_0 :center_4_0 :center_7_0 :center_8_0"/>

    <connection from="bottom-approaching" to="right-exit" fromLane="0" toLane="0" via=":center_6_0" tl="center" linkIndex="6" dir="r" state="O"/>
    <connection from="bottom-approaching" to="top-exit" fromLane="1" toLane="1" via=":center_7_0" tl="center" linkIndex="7" dir="s" state="O"/>
    <connection from="bottom-approaching" to="closed-lane" fromLane="2" toLane="2" via=":center_8_0" tl="center" linkIndex="8" dir="l" state="o"/>
    <connection from="closed-lane" to="remerging-lane" fromLane="2" toLane="1" via=":blockage-end_0_0" dir="s" state="M"/>
    <connection from="left-long-approaching" to="preparation" fromLane="0" toLane="0" via=":preparation_0_0" dir="s" state="M"/>
    <connection from="left-long-approaching" to="preparation" fromLane="1" toLane="1" via=":preparation_0_1" dir="s" state="M"/>
    <connection from="left-long-approaching" to="preparation" fromLane="2" toLane="2" via=":preparation_0_2" dir="s" state="M"/>
    <connection from="left-short-approaching" to="bottom-exit" fromLane="0" toLane="0" via=":center_9_0" tl="center" linkIndex="9" dir="r" state="O"/>
    <connection from="left-short-approaching" to="right-exit" fromLane="0" toLane="0" via=":center_10_0" tl="center" linkIndex="10" dir="s" state="o"/>
    <connection from="left-short-approaching" to="right-exit" fromLane="1" toLane="1" via=":center_10_1" tl="center" linkIndex="11" dir="s" state="o"/>
    <connection from="left-short-approaching" to="top-exit" fromLane="1" toLane="1" via=":center_12_0" tl="center" linkIndex="12" dir="l" state="o"/>
    <connection from="preparation" to="left-short-approaching" fromLane="0" toLane="0" via=":adjacent-end_2_0" dir="s" state="M"/>
    <connection from="preparation" to="left-short-approaching" fromLane="1" toLane="1" via=":adjacent-end_2_1" dir="s" state="M"/>
    <connection from="remerging-lane" to="left-exit" fromLane="0" toLane="0" via=":adjacent-end_0_0" dir="s" state="M"/>
    <connection from="remerging-lane" to="left-exit" fromLane="1" toLane="1" via=":adjacent-end_0_1" dir="s" state="M"/>
    <connection from="right-approaching" to="top-exit" fromLane="0" toLane="0" via=":center_3_0" tl="center" linkIndex="3" dir="r" state="O"/>
    <connection from="right-approaching" to="closed-lane" fromLane="1" toLane="2" via=":center_4_0" tl="center" linkIndex="4" dir="s" state="o"/>
    <connection from="right-approaching" to="bottom-exit" fromLane="2" toLane="1" via=":center_5_0" tl="center" linkIndex="5" dir="l" state="o"/>
    <connection from="top-approaching" to="closed-lane" fromLane="0" toLane="2" via=":center_0_0" tl="center" linkIndex="0" dir="r" state="O"/>
    <connection from="top-approaching" to="bottom-exit" fromLane="1" toLane="1" via=":center_1_0" tl="center" linkIndex="1" dir="s" state="O"/>
    <connection from="top-approaching" to="right-exit" fromLane="2" toLane="1" via=":center_2_0" tl="center" linkIndex="2" dir="l" state="o"/>

    <connection from=":adjacent-end_0" to="left-exit" fromLane="0" toLane="0" dir="s" state="M"/>
    <connection from=":adjacent-end_0" to="left-exit" fromLane="1" toLane="1" dir="s" state="M"/>
    <connection from=":adjacent-end_2" to="left-short-approaching" fromLane="0" toLane="0" dir="s" state="M"/>
    <connection from=":adjacent-end_2" to="left-short-approaching" fromLane="1" toLane="1" dir="s" state="M"/>
    <connection from=":blockage-end_0" to="remerging-lane" fromLane="0" toLane="1" dir="s" state="M"/>
    <connection from=":center_0" to="closed-lane" fromLane="0" toLane="2" dir="r" state="M"/>
    <connection from=":center_1" to="bottom-exit" fromLane="0" toLane="1" dir="s" state="M"/>
    <connection from=":center_2" to="right-exit" fromLane="0" toLane="1" via=":center_13_0" dir="l" state="m"/>
    <connection from=":center_13" to="right-exit" fromLane="0" toLane="1" dir="l" state="M"/>
    <connection from=":center_3" to="top-exit" fromLane="0" toLane="0" dir="r" state="M"/>
    <connection from=":center_4" to="closed-lane" fromLane="0" toLane="2" dir="s" state="M"/>
    <connection from=":center_5" to="bottom-exit" fromLane="0" toLane="1" via=":center_14_0" dir="l" state="m"/>
    <connection from=":center_14" to="bottom-exit" fromLane="0" toLane="1" dir="l" state="M"/>
    <connection from=":center_6" to="right-exit" fromLane="0" toLane="0" dir="r" state="M"/>
    <connection from=":center_7" to="top-exit" fromLane="0" toLane="1" dir="s" state="M"/>
    <connection from=":center_8" to="closed-lane" fromLane="0" toLane="2" via=":center_15_0" dir="l" state="m"/>
    <connection from=":center_15" to="closed-lane" fromLane="0" toLane="2" dir="l" state="M"/>
    <connection from=":center_9" to="bottom-exit" fromLane="0" toLane="0" dir="r" state="M"/>
    <connection from=":center_10" to="right-exit" fromLane="0" toLane="0" dir="s" state="M"/>
    <connection from=":center_10" to="right-exit" fromLane="1" toLane="1" dir="s" state="M"/>
    <connection from=":center_12" to="top-exit" fromLane="0" toLane="1" via=":center_16_0" dir="l" state="m"/>
    <connection from=":center_16" to="top-exit" fromLane="0" toLane="1" dir="l" state="M"/>
    <connection from=":preparation_0" to="preparation" fromLane="0" toLane="0" dir="s" state="M"/>
    <connection from=":preparation_0" to="preparation" fromLane="1" toLane="1" dir="s" state="M"/>
    <connection from=":preparation_0" to="preparation" fromLane="2" toLane="2" dir="s" state="M"/>

</net>
