<?xml version="1.0" encoding="UTF-8"?>

<!-- generated on 02/24/21 21:12:49 by Eclipse SUMO netconvert Version 1.8.0
<configuration xmlns:xsi="http://www.w3.org/2001/XMLSchema-instance" xsi:noNamespaceSchemaLocation="http://sumo.dlr.de/xsd/netconvertConfiguration.xsd">

    <input>
        <node-files value="NetworkSetup/RoadworksNode.nod.xml"/>
        <edge-files value="NetworkSetup/RoadworksEdge.edg.xml"/>
        <connection-files value="NetworkSetup/RoadworksConnection.con.xml"/>
    </input>

    <output>
        <output-file value="RoadworksIntersection.net.xml"/>
    </output>

    <processing>
        <opposites.guess value="true"/>
        <opposites.guess.fix-lengths value="true"/>
    </processing>

    <junctions>
        <no-turnarounds value="true"/>
    </junctions>

    <report>
        <verbose value="true"/>
        <aggregate-warnings value="5"/>
    </report>

</configuration>
-->

<net version="1.6" junctionCornerDetail="5" limitTurnSpeed="5.50" xmlns:xsi="http://www.w3.org/2001/XMLSchema-instance" xsi:noNamespaceSchemaLocation="http://sumo.dlr.de/xsd/net_file.xsd">

    <location netOffset="600.00,500.00" convBoundary="0.00,0.00,1100.00,1000.00" origBoundary="-600.00,-500.00,500.00,500.00" projParameter="!"/>

    <edge id=":adjacent-end_0" function="internal">
        <lane id=":adjacent-end_0_0" index="0" speed="13.89" length="8.81" shape="559.00,508.00 556.54,507.50 555.00,506.40 553.46,505.30 551.00,504.80"/>
        <lane id=":adjacent-end_0_1" index="1" speed="13.89" length="8.81" shape="559.00,504.80 556.54,504.30 555.00,503.20 553.46,502.10 551.00,501.60"/>
    </edge>
    <edge id=":adjacent-end_2" function="internal">
        <lane id=":adjacent-end_2_0" index="0" speed="13.89" length="8.81" shape="551.00,492.00 553.46,492.50 555.00,493.60 556.54,494.70 559.00,495.20"/>
        <lane id=":adjacent-end_2_1" index="1" speed="13.89" length="8.81" shape="551.00,495.20 553.46,495.70 555.00,496.80 556.54,497.90 559.00,498.40"/>
    </edge>
    <edge id=":blockage-end_0" function="internal">
        <lane id=":blockage-end_0_0" index="0" speed="11.11" length="0.10" shape="570.00,508.00 570.00,508.00"/>
        <lane id=":blockage-end_0_1" index="1" speed="11.11" length="0.10" shape="570.00,504.80 570.00,504.80"/>
        <lane id=":blockage-end_0_2" index="2" speed="11.11" length="0.10" shape="570.00,501.60 570.00,501.60"/>
    </edge>
    <edge id=":center_0" function="internal">
        <lane id=":center_0_0" index="0" speed="8.10" length="14.57" shape="592.00,513.60 591.65,508.35 590.60,504.60 588.85,502.35 586.40,501.60"/>
    </edge>
    <edge id=":center_1" function="internal">
        <lane id=":center_1_0" index="0" speed="16.67" length="24.00" shape="595.20,513.60 595.20,489.60"/>
    </edge>
    <edge id=":center_2" function="internal">
        <lane id=":center_2_0" index="0" speed="10.36" length="13.42" shape="598.40,513.60 599.35,506.95 602.20,502.20 603.20,501.60"/>
    </edge>
    <edge id=":center_13" function="internal">
        <lane id=":center_13_0" index="0" speed="10.36" length="11.09" shape="603.20,501.60 606.95,499.35 613.60,498.40"/>
    </edge>
    <edge id=":center_3" function="internal">
        <lane id=":center_3_0" index="0" speed="7.33" length="11.73" shape="613.60,508.00 609.75,508.35 607.00,509.40 605.35,511.15 604.80,513.60"/>
    </edge>
    <edge id=":center_4" function="internal">
        <lane id=":center_4_0" index="0" speed="13.89" length="27.45" shape="613.60,504.80 605.50,504.30 600.00,503.20 594.50,502.10 586.40,501.60"/>
    </edge>
    <edge id=":center_5" function="internal">
        <lane id=":center_5_0" index="0" speed="9.84" length="8.68" shape="613.60,501.60 606.95,500.85 605.16,500.00"/>
    </edge>
    <edge id=":center_14" function="internal">
        <lane id=":center_14_0" index="0" speed="9.84" length="13.32" shape="605.16,500.00 602.20,498.60 599.35,494.85 598.40,489.60"/>
    </edge>
    <edge id=":center_6" function="internal">
        <lane id=":center_6_0" index="0" speed="6.51" length="9.03" shape="608.00,489.60 608.35,492.05 609.40,493.80 611.15,494.85 613.60,495.20"/>
    </edge>
    <edge id=":center_7" function="internal">
        <lane id=":center_7_0" index="0" speed="16.67" length="24.00" shape="604.80,489.60 604.80,513.60"/>
    </edge>
    <edge id=":center_8" function="internal">
        <lane id=":center_8_0" index="0" speed="9.84" length="11.15" shape="601.60,489.60 600.65,494.85 597.80,498.60 596.80,499.07"/>
    </edge>
    <edge id=":center_15" function="internal">
        <lane id=":center_15_0" index="0" speed="9.84" length="10.84" shape="596.80,499.07 593.05,500.85 586.40,501.60"/>
    </edge>
    <edge id=":center_9" function="internal">
        <lane id=":center_9_0" index="0" speed="7.33" length="11.73" shape="586.40,495.20 590.25,494.85 593.00,493.80 594.65,492.05 595.20,489.60"/>
    </edge>
    <edge id=":center_10" function="internal">
        <lane id=":center_10_0" index="0" speed="13.89" length="27.20" shape="586.40,495.20 613.60,495.20"/>
        <lane id=":center_10_1" index="1" speed="13.89" length="27.20" shape="586.40,498.40 613.60,498.40"/>
    </edge>
    <edge id=":center_12" function="internal">
        <lane id=":center_12_0" index="0" speed="10.36" length="9.13" shape="586.40,498.40 593.05,499.35 595.12,500.59"/>
    </edge>
    <edge id=":center_16" function="internal">
        <lane id=":center_16_0" index="0" speed="10.36" length="15.38" shape="595.12,500.59 597.80,502.20 600.65,506.95 601.60,513.60"/>
    </edge>
    <edge id=":preparation_0" function="internal">
        <lane id=":preparation_0_0" index="0" speed="16.67" length="0.10" shape="400.00,492.00 400.00,492.00"/>
        <lane id=":preparation_0_1" index="1" speed="16.67" length="0.10" shape="400.00,495.20 400.00,495.20"/>
        <lane id=":preparation_0_2" index="2" speed="16.67" length="0.10" shape="400.00,498.40 400.00,498.40"/>
    </edge>

    <edge id="bottom-approaching" from="bottom-node" to="center" priority="78">
        <lane id="bottom-approaching_0" index="0" speed="16.67" length="489.60" shape="608.00,0.00 608.00,489.60"/>
        <lane id="bottom-approaching_1" index="1" speed="16.67" length="489.60" shape="604.80,0.00 604.80,489.60"/>
        <lane id="bottom-approaching_2" index="2" speed="16.67" length="489.60" shape="601.60,0.00 601.60,489.60">
            <neigh lane="bottom-exit_1"/>
        </lane>
    </edge>
    <edge id="bottom-exit" from="center" to="bottom-node" priority="46">
        <lane id="bottom-exit_0" index="0" speed="16.67" length="489.60" shape="595.20,489.60 595.20,0.00"/>
        <lane id="bottom-exit_1" index="1" speed="16.67" length="489.60" shape="598.40,489.60 598.40,0.00">
            <neigh lane="bottom-approaching_2"/>
        </lane>
    </edge>
    <edge id="closed-lane" from="center" to="blockage-end" priority="46">
        <lane id="closed-lane_0" index="0" speed="11.11" length="16.40" shape="586.40,508.00 570.00,508.00"/>
        <lane id="closed-lane_1" index="1" speed="11.11" length="16.40" shape="586.40,504.80 570.00,504.80"/>
        <lane id="closed-lane_2" index="2" speed="11.11" length="16.40" shape="586.40,501.60 570.00,501.60"/>
    </edge>
    <edge id="left-exit" from="adjacent-end" to="left-node" priority="46">
        <lane id="left-exit_0" index="0" speed="16.67" length="551.00" shape="551.00,504.80 0.00,504.80"/>
        <lane id="left-exit_1" index="1" speed="16.67" length="551.00" shape="551.00,501.60 0.00,501.60"/>
    </edge>
    <edge id="left-long-approaching" from="left-node" to="preparation" priority="78">
        <lane id="left-long-approaching_0" index="0" speed="16.67" length="400.00" shape="0.00,492.00 400.00,492.00"/>
        <lane id="left-long-approaching_1" index="1" speed="16.67" length="400.00" shape="0.00,495.20 400.00,495.20"/>
        <lane id="left-long-approaching_2" index="2" speed="16.67" length="400.00" shape="0.00,498.40 400.00,498.40"/>
    </edge>
    <edge id="left-short-approaching" from="adjacent-end" to="center" priority="78">
        <lane id="left-short-approaching_0" index="0" speed="11.11" length="27.40" shape="559.00,495.20 586.40,495.20"/>
        <lane id="left-short-approaching_1" index="1" speed="11.11" length="27.40" shape="559.00,498.40 586.40,498.40"/>
    </edge>
    <edge id="preparation" from="preparation" to="adjacent-end" priority="78">
        <lane id="preparation_0" index="0" speed="16.67" length="151.00" shape="400.00,492.00 551.00,492.00"/>
        <lane id="preparation_1" index="1" speed="16.67" length="151.00" shape="400.00,495.20 551.00,495.20"/>
        <lane id="preparation_2" index="2" speed="16.67" length="151.00" shape="400.00,498.40 551.00,498.40"/>
    </edge>
    <edge id="remerging-lane" from="blockage-end" to="adjacent-end" priority="46">
        <lane id="remerging-lane_0" index="0" speed="11.11" length="11.00" shape="570.00,508.00 559.00,508.00"/>
        <lane id="remerging-lane_1" index="1" speed="11.11" length="11.00" shape="570.00,504.80 559.00,504.80"/>
        <lane id="remerging-lane_2" index="2" speed="11.11" length="11.00" shape="570.00,501.60 559.00,501.60"/>
    </edge>
    <edge id="right-approaching" from="right-node" to="center" priority="78">
        <lane id="right-approaching_0" index="0" speed="16.67" length="486.40" shape="1100.00,508.00 613.60,508.00"/>
        <lane id="right-approaching_1" index="1" speed="16.67" length="486.40" shape="1100.00,504.80 613.60,504.80"/>
        <lane id="right-approaching_2" index="2" speed="16.67" length="486.40" shape="1100.00,501.60 613.60,501.60">
            <neigh lane="right-exit_1"/>
        </lane>
    </edge>
    <edge id="right-exit" from="center" to="right-node" priority="46">
        <lane id="right-exit_0" index="0" speed="16.67" length="486.40" shape="613.60,495.20 1100.00,495.20"/>
        <lane id="right-exit_1" index="1" speed="16.67" length="486.40" shape="613.60,498.40 1100.00,498.40">
            <neigh lane="right-approaching_2"/>
        </lane>
    </edge>
    <edge id="top-approaching" from="top-node" to="center" priority="78">
        <lane id="top-approaching_0" index="0" speed="16.67" length="486.40" shape="592.00,1000.00 592.00,513.60"/>
        <lane id="top-approaching_1" index="1" speed="16.67" length="486.40" shape="595.20,1000.00 595.20,513.60"/>
        <lane id="top-approaching_2" index="2" speed="16.67" length="486.40" shape="598.40,1000.00 598.40,513.60">
            <neigh lane="top-exit_1"/>
        </lane>
    </edge>
    <edge id="top-exit" from="center" to="top-node" priority="46">
        <lane id="top-exit_0" index="0" speed="16.67" length="486.40" shape="604.80,513.60 604.80,1000.00"/>
        <lane id="top-exit_1" index="1" speed="16.67" length="486.40" shape="601.60,513.60 601.60,1000.00">
            <neigh lane="top-approaching_2"/>
        </lane>
    </edge>

    <tlLogic id="center" type="static" programID="0" offset="0">
        <phase duration="31" state="GGgrrrGGgrrrr"/>
        <phase duration="4"  state="yygrrryygrrrr"/>
        <phase duration="6"  state="rrGrrrrrGrrrr"/>
        <phase duration="4"  state="rryrrrrryrrrr"/>
        <phase duration="31" state="rrrGGgrrrGGGg"/>
        <phase duration="4"  state="rrryygrrryyyg"/>
        <phase duration="6"  state="rrrrrGrrrrrrG"/>
        <phase duration="4"  state="rrrrryrrrrrry"/>
    </tlLogic>

    <junction id="adjacent-end" type="priority" x="555.00" y="500.00" incLanes="remerging-lane_0 remerging-lane_1 remerging-lane_2 preparation_0 preparation_1 preparation_2" intLanes=":adjacent-end_0_0 :adjacent-end_0_1 :adjacent-end_2_0 :adjacent-end_2_1" shape="559.00,509.60 559.00,493.60 555.97,492.77 554.03,491.23 552.79,490.64 551.00,490.40 551.00,506.40 554.03,507.23 555.97,508.77 557.21,509.36">
        <request index="0" response="0000" foes="0000" cont="0"/>
        <request index="1" response="0000" foes="0000" cont="0"/>
        <request index="2" response="0000" foes="0000" cont="0"/>
        <request index="3" response="0000" foes="0000" cont="0"/>
    </junction>
    <junction id="blockage-end" type="priority" x="570.00" y="500.00" incLanes="closed-lane_0 closed-lane_1 closed-lane_2" intLanes=":blockage-end_0_0 :blockage-end_0_1 :blockage-end_0_2" shape="570.00,509.60 570.00,500.00 570.00,509.60">
        <request index="0" response="000" foes="000" cont="0"/>
        <request index="1" response="000" foes="000" cont="0"/>
        <request index="2" response="000" foes="000" cont="0"/>
    </junction>
    <junction id="bottom-node" type="dead_end" x="600.00" y="0.00" incLanes="bottom-exit_0 bottom-exit_1" intLanes="" shape="600.00,0.00 593.60,0.00 600.00,0.00"/>
    <junction id="center" type="traffic_light" x="600.00" y="500.00" incLanes="top-approaching_0 top-approaching_1 top-approaching_2 right-approaching_0 right-approaching_1 right-approaching_2 bottom-approaching_0 bottom-approaching_1 bottom-approaching_2 left-short-approaching_0 left-short-approaching_1" intLanes=":center_0_0 :center_1_0 :center_13_0 :center_3_0 :center_4_0 :center_14_0 :center_6_0 :center_7_0 :center_15_0 :center_9_0 :center_10_0 :center_10_1 :center_16_0" shape="590.40,513.60 606.40,513.60 607.20,511.38 608.20,510.60 609.60,510.04 611.40,509.71 613.60,509.60 613.60,493.60 611.38,493.16 610.60,492.60 610.04,491.82 609.71,490.82 609.60,489.60 593.60,489.60 592.80,491.82 591.80,492.60 590.40,493.16 588.60,493.49 586.40,493.60 586.40,509.60 588.62,510.04 589.40,510.60 589.96,511.38 590.29,512.38">
        <request index="0"  response="0000000000000" foes="0000100010000" cont="0"/>
        <request index="1"  response="1000000000000" foes="1111100010000" cont="0"/>
        <request index="2"  response="1000010100000" foes="1110010110000" cont="1"/>
        <request index="3"  response="0000010000000" foes="0000010000000" cont="0"/>
        <request index="4"  response="0000110000111" foes="1000110000111" cont="0"/>
        <request index="5"  response="0110110000100" foes="0110110000100" cont="1"/>
        <request index="6"  response="0000000000000" foes="0110000000000" cont="0"/>
        <request index="7"  response="0000000100000" foes="0110000111100" cont="0"/>
        <request index="8"  response="1000000100011" foes="1110000110011" cont="1"/>
        <request index="9"  response="0000000000010" foes="0000000000010" cont="0"/>
        <request index="10" response="0000111000110" foes="0000111100110" cont="0"/>
        <request index="11" response="0000111000110" foes="0000111100110" cont="0"/>
        <request index="12" response="0000100010110" foes="0000100010110" cont="1"/>
    </junction>
    <junction id="left-node" type="dead_end" x="0.00" y="500.00" incLanes="left-exit_0 left-exit_1" intLanes="" shape="0.00,500.00 0.00,506.40 0.00,500.00"/>
    <junction id="preparation" type="priority" x="400.00" y="500.00" incLanes="left-long-approaching_0 left-long-approaching_1 left-long-approaching_2" intLanes=":preparation_0_0 :preparation_0_1 :preparation_0_2" shape="400.00,500.00 400.00,490.40 400.00,500.00">
        <request index="0" response="000" foes="000" cont="0"/>
        <request index="1" response="000" foes="000" cont="0"/>
        <request index="2" response="000" foes="000" cont="0"/>
    </junction>
    <junction id="right-node" type="dead_end" x="1100.00" y="500.00" incLanes="right-exit_0 right-exit_1" intLanes="" shape="1100.00,500.00 1100.00,493.60 1100.00,500.00"/>
    <junction id="top-node" type="dead_end" x="600.00" y="1000.00" incLanes="top-exit_0 top-exit_1" intLanes="" shape="600.00,1000.00 606.40,1000.00 600.00,1000.00"/>

    <junction id=":center_13_0" type="internal" x="603.20" y="501.60" incLanes=":center_2_0 bottom-approaching_0 bottom-approaching_1" intLanes=":center_4_0 :center_5_0 :center_6_0 :center_7_0 :center_10_0 :center_10_1 :center_12_0"/>
    <junction id=":center_14_0" type="internal" x="605.16" y="500.00" incLanes=":center_5_0 left-short-approaching_0 left-short-approaching_1" intLanes=":center_1_0 :center_2_0 :center_7_0 :center_8_0 :center_9_0 :center_10_0 :center_10_1"/>
    <junction id=":center_15_0" type="internal" x="596.80" y="499.07" incLanes=":center_8_0 top-approaching_0 top-approaching_1" intLanes=":center_0_0 :center_1_0 :center_4_0 :center_5_0 :center_10_0 :center_10_1 :center_12_0"/>
    <junction id=":center_16_0" type="internal" x="595.12" y="500.59" incLanes=":center_12_0 right-approaching_0 right-approaching_1" intLanes=":center_1_0 :center_2_0 :center_3_0 :center_4_0 :center_7_0 :center_8_0"/>

    <connection from="bottom-approaching" to="right-exit" fromLane="0" toLane="0" via=":center_6_0" tl="center" linkIndex="6" dir="r" state="O"/>
    <connection from="bottom-approaching" to="top-exit" fromLane="1" toLane="0" via=":center_7_0" tl="center" linkIndex="7" dir="s" state="O"/>
    <connection from="bottom-approaching" to="closed-lane" fromLane="2" toLane="2" via=":center_8_0" tl="center" linkIndex="8" dir="l" state="o"/>
    <connection from="closed-lane" to="remerging-lane" fromLane="0" toLane="0" via=":blockage-end_0_0" dir="s" state="M"/>
    <connection from="closed-lane" to="remerging-lane" fromLane="1" toLane="1" via=":blockage-end_0_1" dir="s" state="M"/>
    <connection from="closed-lane" to="remerging-lane" fromLane="2" toLane="2" via=":blockage-end_0_2" dir="s" state="M"/>
    <connection from="left-long-approaching" to="preparation" fromLane="0" toLane="0" via=":preparation_0_0" dir="s" state="M"/>
    <connection from="left-long-approaching" to="preparation" fromLane="1" toLane="1" via=":preparation_0_1" dir="s" state="M"/>
    <connection from="left-long-approaching" to="preparation" fromLane="2" toLane="2" via=":preparation_0_2" dir="s" state="M"/>
    <connection from="left-short-approaching" to="bottom-exit" fromLane="0" toLane="0" via=":center_9_0" tl="center" linkIndex="9" dir="r" state="o"/>
    <connection from="left-short-approaching" to="right-exit" fromLane="0" toLane="0" via=":center_10_0" tl="center" linkIndex="10" dir="s" state="o"/>
    <connection from="left-short-approaching" to="right-exit" fromLane="1" toLane="1" via=":center_10_1" tl="center" linkIndex="11" dir="s" state="o"/>
    <connection from="left-short-approaching" to="top-exit" fromLane="1" toLane="1" via=":center_12_0" tl="center" linkIndex="12" dir="l" state="o"/>
    <connection from="preparation" to="left-short-approaching" fromLane="0" toLane="0" via=":adjacent-end_2_0" dir="s" state="M"/>
    <connection from="preparation" to="left-short-approaching" fromLane="1" toLane="1" via=":adjacent-end_2_1" dir="s" state="M"/>
    <connection from="remerging-lane" to="left-exit" fromLane="0" toLane="0" via=":adjacent-end_0_0" dir="s" state="M"/>
    <connection from="remerging-lane" to="left-exit" fromLane="1" toLane="1" via=":adjacent-end_0_1" dir="s" state="M"/>
    <connection from="right-approaching" to="top-exit" fromLane="0" toLane="0" via=":center_3_0" tl="center" linkIndex="3" dir="r" state="o"/>
    <connection from="right-approaching" to="closed-lane" fromLane="1" toLane="2" via=":center_4_0" tl="center" linkIndex="4" dir="s" state="o"/>
    <connection from="right-approaching" to="bottom-exit" fromLane="2" toLane="1" via=":center_5_0" tl="center" linkIndex="5" dir="l" state="o"/>
    <connection from="top-approaching" to="closed-lane" fromLane="0" toLane="2" via=":center_0_0" tl="center" linkIndex="0" dir="r" state="O"/>
    <connection from="top-approaching" to="bottom-exit" fromLane="1" toLane="0" via=":center_1_0" tl="center" linkIndex="1" dir="s" state="O"/>
    <connection from="top-approaching" to="right-exit" fromLane="2" toLane="1" via=":center_2_0" tl="center" linkIndex="2" dir="l" state="o"/>

    <connection from=":adjacent-end_0" to="left-exit" fromLane="0" toLane="0" dir="s" state="M"/>
    <connection from=":adjacent-end_0" to="left-exit" fromLane="1" toLane="1" dir="s" state="M"/>
    <connection from=":adjacent-end_2" to="left-short-approaching" fromLane="0" toLane="0" dir="s" state="M"/>
    <connection from=":adjacent-end_2" to="left-short-approaching" fromLane="1" toLane="1" dir="s" state="M"/>
    <connection from=":blockage-end_0" to="remerging-lane" fromLane="0" toLane="0" dir="s" state="M"/>
    <connection from=":blockage-end_0" to="remerging-lane" fromLane="1" toLane="1" dir="s" state="M"/>
    <connection from=":blockage-end_0" to="remerging-lane" fromLane="2" toLane="2" dir="s" state="M"/>
    <connection from=":center_0" to="closed-lane" fromLane="0" toLane="2" dir="r" state="M"/>
    <connection from=":center_1" to="bottom-exit" fromLane="0" toLane="0" dir="s" state="M"/>
    <connection from=":center_2" to="right-exit" fromLane="0" toLane="1" via=":center_13_0" dir="l" state="m"/>
    <connection from=":center_13" to="right-exit" fromLane="0" toLane="1" dir="l" state="M"/>
    <connection from=":center_3" to="top-exit" fromLane="0" toLane="0" dir="r" state="M"/>
    <connection from=":center_4" to="closed-lane" fromLane="0" toLane="2" dir="s" state="M"/>
    <connection from=":center_5" to="bottom-exit" fromLane="0" toLane="1" via=":center_14_0" dir="l" state="m"/>
    <connection from=":center_14" to="bottom-exit" fromLane="0" toLane="1" dir="l" state="M"/>
    <connection from=":center_6" to="right-exit" fromLane="0" toLane="0" dir="r" state="M"/>
    <connection from=":center_7" to="top-exit" fromLane="0" toLane="0" dir="s" state="M"/>
    <connection from=":center_8" to="closed-lane" fromLane="0" toLane="2" via=":center_15_0" dir="l" state="m"/>
    <connection from=":center_15" to="closed-lane" fromLane="0" toLane="2" dir="l" state="M"/>
    <connection from=":center_9" to="bottom-exit" fromLane="0" toLane="0" dir="r" state="M"/>
    <connection from=":center_10" to="right-exit" fromLane="0" toLane="0" dir="s" state="M"/>
    <connection from=":center_10" to="right-exit" fromLane="1" toLane="1" dir="s" state="M"/>
    <connection from=":center_12" to="top-exit" fromLane="0" toLane="1" via=":center_16_0" dir="l" state="m"/>
    <connection from=":center_16" to="top-exit" fromLane="0" toLane="1" dir="l" state="M"/>
    <connection from=":preparation_0" to="preparation" fromLane="0" toLane="0" dir="s" state="M"/>
    <connection from=":preparation_0" to="preparation" fromLane="1" toLane="1" dir="s" state="M"/>
    <connection from=":preparation_0" to="preparation" fromLane="2" toLane="2" dir="s" state="M"/>

</net>
