<edges>
    <edge id="left-long-approaching" from="left-node" to="adjacent-end" priority="78" numLanes="3" speed="19.444"/>
    <edge id="left-short-approaching" from="adjacent-end" to="center" priority="78" numLanes="2" speed="19.444"/>

    <edge id="closed-lane" from="center" to="blockage-end" priority="46" numLanes="3" speed="11.111"/>
    <edge id="remerging-lane" from="blockage-end" to="adjacent-end" priority="46" numLanes="3" speed="11.111"/>
    <edge id="left-exit" from="adjacent-end" to="left-node" priority="46" numLanes="2" speed="11.111"/>
 
    <edge id="top-approaching" from="top-node" to="center" priority="78" numLanes="3" speed="19.444" />
    <edge id="top-exit" from="center" to="top-node" priority="46" numLanes="2" speed="11.111" />
 
    <edge id="right-approaching" from="right-node" to="center" priority="78" numLanes="3" speed="19.444" />
    <edge id="right-exit" from="center" to="right-node" priority="46" numLanes="2" speed="11.111" />
    
    <edge id="bottom-approaching" from="bottom-node" to="center" priority="78" numLanes="3" speed="19.444" />
    <edge id="bottom-exit" from="center" to="bottom-node" priority="46" numLanes="2" speed="11.111" />
</edges>