<?xml version="1.0" encoding="UTF-8"?>

<!-- generated on 02/23/21 11:58:56 by Eclipse SUMO netconvert Version 1.8.0
<configuration xmlns:xsi="http://www.w3.org/2001/XMLSchema-instance" xsi:noNamespaceSchemaLocation="http://sumo.dlr.de/xsd/netconvertConfiguration.xsd">

    <input>
        <node-files value="NetworkSetup/RoadworksNode.nod.xml"/>
        <edge-files value="NetworkSetup/RoadworksEdge.edg.xml"/>
        <connection-files value="NetworkSetup/RoadworksConnection.con.xml"/>
    </input>

    <output>
        <output-file value="RoadworksIntersection.net.xml"/>
        <street-sign-output value="steetSigns.add.xml"/>
    </output>

    <processing>
        <opposites.guess value="true"/>
        <opposites.guess.fix-lengths value="true"/>
    </processing>

    <junctions>
        <no-turnarounds value="true"/>
    </junctions>

    <report>
        <verbose value="true"/>
        <aggregate-warnings value="5"/>
    </report>

</configuration>
-->

<additional >

    
    <poi id="Traffic-Light-Sign-Top" type="Traffic-Lights" layer="0" x="485" y="570" width="5" height="5" color="255, 255, 255" imgFile="traffic_lights.png"/>
    <poi id="Traffic-Light-Sign-Left" type="Traffic-Lights" layer="0" x="430" y="485" width="5" height="5" color="255, 255, 255" imgFile="traffic_lights.png"/>
    <poi id="Traffic-Light-Sign-Bottom" type="Traffic-Lights" layer="0" x="515" y="430" width="5" height="5" color="255, 255, 255" imgFile="traffic_lights.png"/>
    <poi id="Traffic-Light-Sign-Right" type="Traffic-Lights" layer="0" x="570" y="515" width="5" height="5" color="255, 255, 255" imgFile="traffic_lights.png"/>

    <poi id="Intersection-Sign-Top" type="Intersection" layer="0" x="485" y="580" width="5" height="5" color="255, 255, 255" imgFile="Intersection-Sign.jpg"/>
    <poi id="Intersection-Sign-Left" type="Intersection" layer="0" x="420" y="485" width="5" height="5" color="255, 255, 255" imgFile="Intersection-Sign.jpg"/>
    <poi id="Intersection-Sign-Bottom" type="Intersection" layer="0" x="515" y="420" width="5" height="5" color="255, 255, 255" imgFile="Intersection-Sign.jpg"/>
    <poi id="Intersection-Sign-Right" type="Intersection" layer="0" x="580" y="515" width="5" height="5" color="255, 255, 255" imgFile="Intersection-Sign.jpg"/>

    <poi id="Roadworks-Sign-Top" type="Roadworks" layer="0" x="485" y="550" width="5" height="5" color="255, 255, 255" imgFile="Roadworks-Image.jpg"/>
    <poi id="Roadworks-Sign-Left" type="Roadworks" layer="0" x="250" y="485" width="5" height="5" color="255, 255, 255" imgFile="Roadworks-Image.jpg"/>
    <poi id="Roadworks-Sign-Bottom" type="Roadworks" layer="0" x="515" y="450" width="5" height="5" color="255, 255, 255" imgFile="Roadworks-Image.jpg"/>
    <poi id="Roadworks-Sign-Right" type="Roadworks" layer="0" x="550" y="515" width="5" height="5" color="255, 255, 255" imgFile="Roadworks-Image.jpg"/>

    <poi id="Left-Lane-Closed-Sign" type="Merging" layer="0" x="260" y="485" width="5" height="5" color="255, 255, 255" imgFile="Left-Lane-Closed-Ahead.png"/>


    

</additional>
