<?xml version="1.0" encoding="UTF-8"?>
<!-- generated on 2021-02-20 20:29:20.871472 by $Id$ v1_8_0+0044-4820708f3d
  options: -n RoadworksIntersection.net.xml -e 50 <doubleminus>fringe-factor 10 -r Route-Files/L4-CV-Route.rou.xml <doubleminus>trip-attributes=type="L4-CV" -l <doubleminus>prefix L4-CV- <doubleminus>seed 1
-->
<routes xmlns:xsi="http://www.w3.org/2001/XMLSchema-instance" xsi:noNamespaceSchemaLocation="http://sumo.dlr.de/xsd/routes_file.xsd">
    <trip id="L4-CV-0" depart="0.00" from="bottom-approaching" to="top-exit" type="L4-CV"/>
    <trip id="L4-CV-1" depart="1.00" from="top-approaching" to="left-exit" type="L4-CV"/>
    <trip id="L4-CV-2" depart="2.00" from="left-short-approaching" to="left-exit" type="L4-CV"/>
    <trip id="L4-CV-3" depart="3.00" from="right-approaching" to="top-exit" type="L4-CV"/>
    <trip id="L4-CV-4" depart="4.00" from="bottom-approaching" to="bottom-exit" type="L4-CV"/>
    <trip id="L4-CV-5" depart="5.00" from="top-approaching" to="left-exit" type="L4-CV"/>
    <trip id="L4-CV-6" depart="6.00" from="top-approaching" to="bottom-exit" type="L4-CV"/>
    <trip id="L4-CV-7" depart="7.00" from="left-long-approaching" to="right-exit" type="L4-CV"/>
    <trip id="L4-CV-8" depart="8.00" from="bottom-approaching" to="top-exit" type="L4-CV"/>
    <trip id="L4-CV-9" depart="9.00" from="top-approaching" to="bottom-exit" type="L4-CV"/>
    <trip id="L4-CV-10" depart="10.00" from="bottom-approaching" to="right-exit" type="L4-CV"/>
    <trip id="L4-CV-11" depart="11.00" from="top-approaching" to="left-exit" type="L4-CV"/>
    <trip id="L4-CV-12" depart="12.00" from="bottom-approaching" to="left-exit" type="L4-CV"/>
    <trip id="L4-CV-13" depart="13.00" from="bottom-approaching" to="bottom-exit" type="L4-CV"/>
    <trip id="L4-CV-14" depart="14.00" from="left-long-approaching" to="left-short-approaching" type="L4-CV"/>
    <trip id="L4-CV-15" depart="15.00" from="bottom-approaching" to="bottom-exit" type="L4-CV"/>
    <trip id="L4-CV-16" depart="16.00" from="bottom-approaching" to="left-exit" type="L4-CV"/>
    <trip id="L4-CV-17" depart="17.00" from="left-long-approaching" to="bottom-exit" type="L4-CV"/>
    <trip id="L4-CV-18" depart="18.00" from="top-approaching" to="right-exit" type="L4-CV"/>
    <trip id="L4-CV-19" depart="19.00" from="right-approaching" to="bottom-exit" type="L4-CV"/>
    <trip id="L4-CV-20" depart="20.00" from="top-approaching" to="top-exit" type="L4-CV"/>
    <trip id="L4-CV-21" depart="21.00" from="bottom-approaching" to="left-exit" type="L4-CV"/>
    <trip id="L4-CV-22" depart="22.00" from="right-approaching" to="right-exit" type="L4-CV"/>
    <trip id="L4-CV-23" depart="23.00" from="top-approaching" to="left-exit" type="L4-CV"/>
    <trip id="L4-CV-24" depart="24.00" from="top-approaching" to="right-exit" type="L4-CV"/>
    <trip id="L4-CV-25" depart="25.00" from="left-long-approaching" to="right-exit" type="L4-CV"/>
    <trip id="L4-CV-26" depart="26.00" from="top-approaching" to="top-exit" type="L4-CV"/>
    <trip id="L4-CV-27" depart="27.00" from="left-short-approaching" to="right-exit" type="L4-CV"/>
    <trip id="L4-CV-28" depart="28.00" from="bottom-approaching" to="closed-lane" type="L4-CV"/>
    <trip id="L4-CV-29" depart="29.00" from="top-approaching" to="left-exit" type="L4-CV"/>
    <trip id="L4-CV-30" depart="30.00" from="bottom-approaching" to="right-exit" type="L4-CV"/>
    <trip id="L4-CV-31" depart="31.00" from="right-approaching" to="right-exit" type="L4-CV"/>
    <trip id="L4-CV-32" depart="32.00" from="left-long-approaching" to="left-exit" type="L4-CV"/>
    <trip id="L4-CV-33" depart="33.00" from="left-short-approaching" to="top-exit" type="L4-CV"/>
    <trip id="L4-CV-34" depart="34.00" from="remerging-lane" to="left-exit" type="L4-CV"/>
    <trip id="L4-CV-35" depart="35.00" from="left-long-approaching" to="bottom-exit" type="L4-CV"/>
    <trip id="L4-CV-36" depart="36.00" from="bottom-approaching" to="right-exit" type="L4-CV"/>
    <trip id="L4-CV-37" depart="37.00" from="top-approaching" to="right-exit" type="L4-CV"/>
    <trip id="L4-CV-38" depart="38.00" from="left-long-approaching" to="bottom-exit" type="L4-CV"/>
    <trip id="L4-CV-39" depart="39.00" from="left-short-approaching" to="top-exit" type="L4-CV"/>
    <trip id="L4-CV-40" depart="40.00" from="top-approaching" to="right-exit" type="L4-CV"/>
    <trip id="L4-CV-41" depart="41.00" from="top-approaching" to="bottom-exit" type="L4-CV"/>
    <trip id="L4-CV-42" depart="42.00" from="left-short-approaching" to="top-exit" type="L4-CV"/>
    <trip id="L4-CV-43" depart="43.00" from="right-approaching" to="left-exit" type="L4-CV"/>
    <trip id="L4-CV-44" depart="44.00" from="left-long-approaching" to="right-exit" type="L4-CV"/>
    <trip id="L4-CV-45" depart="45.00" from="top-approaching" to="bottom-exit" type="L4-CV"/>
    <trip id="L4-CV-46" depart="46.00" from="top-approaching" to="top-exit" type="L4-CV"/>
    <trip id="L4-CV-47" depart="47.00" from="top-approaching" to="right-exit" type="L4-CV"/>
    <trip id="L4-CV-48" depart="48.00" from="top-approaching" to="remerging-lane" type="L4-CV"/>
    <trip id="L4-CV-49" depart="49.00" from="right-approaching" to="left-exit" type="L4-CV"/>
</routes>
