<?xml version="1.0" encoding="UTF-8"?>

<!-- generated on 04/09/21 11:25:25 by Eclipse SUMO sumo Version 1.8.0
<configuration xmlns:xsi="http://www.w3.org/2001/XMLSchema-instance" xsi:noNamespaceSchemaLocation="http://sumo.dlr.de/xsd/sumoConfiguration.xsd">

    <input>
        <net-file value="Collision\RealTMSPenetration2\../CollisionIntersection.net.xml"/>
        <route-files value="Collision\RealTMSPenetration2\../CrashedVehicleRoutes.rou.xml,Collision\RealTMSPenetration2\Route-Files/L4-CV-Route.rou.xml,Collision\RealTMSPenetration2\Route-Files/L4-AV-Route.rou.xml,Collision\RealTMSPenetration2\Route-Files/L2-CV-Route.rou.xml,Collision\RealTMSPenetration2\Route-Files/L2-AV-Route.rou.xml,Collision\RealTMSPenetration2\Route-Files/L0-HDV-Route.rou.xml"/>
        <additional-files value="Collision\RealTMSPenetration2\../Additional-Files/Collision-Detectors.add.xml,Collision\RealTMSPenetration2\../Additional-Files/Collision-TMS-Rerouters.add.xml,Collision\RealTMSPenetration2\PreparingVehicleModels/Vehicle-Models/L4-CV.add.xml,Collision\RealTMSPenetration2\PreparingVehicleModels/Vehicle-Models/L4-CV-Left.add.xml,Collision\RealTMSPenetration2\PreparingVehicleModels/Vehicle-Models/L4-CV-Right.add.xml,Collision\RealTMSPenetration2\PreparingVehicleModels/Vehicle-Models/L4-AV.add.xml,Collision\RealTMSPenetration2\PreparingVehicleModels/Vehicle-Models/L4-AV-Left.add.xml,Collision\RealTMSPenetration2\PreparingVehicleModels/Vehicle-Models/L4-AV-Right.add.xml,Collision\RealTMSPenetration2\PreparingVehicleModels/Vehicle-Models/L2-CV.add.xml,Collision\RealTMSPenetration2\PreparingVehicleModels/Vehicle-Models/L2-CV-Left.add.xml,Collision\RealTMSPenetration2\PreparingVehicleModels/Vehicle-Models/L2-CV-Right.add.xml,Collision\RealTMSPenetration2\PreparingVehicleModels/Vehicle-Models/L2-AV.add.xml,Collision\RealTMSPenetration2\PreparingVehicleModels/Vehicle-Models/L2-AV-Left.add.xml,Collision\RealTMSPenetration2\PreparingVehicleModels/Vehicle-Models/L2-AV-Right.add.xml,Collision\RealTMSPenetration2\PreparingVehicleModels/Vehicle-Models/L0-HDV.add.xml,Collision\RealTMSPenetration2\PreparingVehicleModels/Vehicle-Models/L0-HDV-Left.add.xml,Collision\RealTMSPenetration2\PreparingVehicleModels/Vehicle-Models/L0-HDV-Straight.add.xml,Collision\RealTMSPenetration2\../Additional-Files/Collision-Traffic-lights.add.xml,Collision\RealTMSPenetration2\../Additional-Files/Collision-Traffic-Signs.add.xml"/>
    </input>

    <output>
        <tripinfo-output value="Collision\RealTMSPenetration2\Output-Files\TripInfo.xml"/>
    </output>

    <time>
        <begin value="0"/>
        <step-length value="0.1"/>
    </time>

    <processing>
        <ignore-route-errors value="true"/>
        <waiting-time-memory value="300"/>
        <default.action-step-length value="0.1"/>
    </processing>

    <report>
        <no-warnings value="true"/>
    </report>

    <emissions>
        <device.emissions.probability value="1"/>
    </emissions>

    <traci_server>
        <remote-port value="53094"/>
    </traci_server>

    <gui_only>
        <quit-on-end value="true"/>
        <start value="true"/>
        <tracker-interval value="0.1"/>
    </gui_only>

</configuration>
-->

<tripinfos xmlns:xsi="http://www.w3.org/2001/XMLSchema-instance" xsi:noNamespaceSchemaLocation="http://sumo.dlr.de/xsd/tripinfo_file.xsd">
    <tripinfo id="L2-AV-1" depart="125.00" departLane="left-long-approaching_0" departPos="5.10" departSpeed="0.00" departDelay="0.00" arrival="184.10" arrivalLane="right-exit_1" arrivalPos="486.40" arrivalSpeed="18.28" duration="59.10" routeLength="995.23" waitingTime="0.00" waitingCount="0" stopTime="0.00" timeLoss="4.57" rerouteNo="0" devices="tripinfo_L2-AV-1 emissions_L2-AV-1 ssm_L2-AV-1 toc_L2-AV-1 driverstateL2-AV-1" vType="L2-AV-24" speedFactor="1.10" vaporized="">
        <emissions CO_abs="1297.222881" CO2_abs="208766.604236" HC_abs="7.718809" PMx_abs="2.562732" NOx_abs="70.659332" fuel_abs="89.740112" electricity_abs="0"/>
    </tripinfo>
    <tripinfo id="L0-HDV-3" depart="128.10" departLane="right-approaching_0" departPos="5.10" departSpeed="0.00" departDelay="0.03" arrival="193.60" arrivalLane="top-exit_0" arrivalPos="486.40" arrivalSpeed="17.19" duration="65.50" routeLength="979.43" waitingTime="0.00" waitingCount="0" stopTime="0.00" timeLoss="7.93" rerouteNo="0" devices="tripinfo_L0-HDV-3 emissions_L0-HDV-3 ssm_L0-HDV-3" vType="L0-HDV-91" speedFactor="1.04" vaporized="">
        <emissions CO_abs="3135.322781" CO2_abs="244397.671056" HC_abs="20.014981" PMx_abs="4.510845" NOx_abs="98.993560" fuel_abs="105.055485" electricity_abs="0"/>
    </tripinfo>
    <tripinfo id="L2-CV-2" depart="130.90" departLane="right-approaching_0" departPos="5.10" departSpeed="0.00" departDelay="0.90" arrival="197.40" arrivalLane="left-exit_1" arrivalPos="410.00" arrivalSpeed="20.01" duration="66.50" routeLength="995.12" waitingTime="0.00" waitingCount="0" stopTime="0.00" timeLoss="16.65" rerouteNo="0" devices="tripinfo_L2-CV-2 emissions_L2-CV-2 ssm_L2-CV-2 toc_L2-CV-2 driverstateL2-CV-2" vType="L2-CV-0@L2-CV-2" speedFactor="1.20" vaporized="">
        <emissions CO_abs="2973.256445" CO2_abs="277914.206037" HC_abs="18.989968" PMx_abs="4.359667" NOx_abs="103.621713" fuel_abs="119.463618" electricity_abs="0"/>
    </tripinfo>
    <tripinfo id="L2-AV-2" depart="134.80" departLane="right-approaching_0" departPos="5.10" departSpeed="0.00" departDelay="4.80" arrival="198.00" arrivalLane="bottom-exit_1" arrivalPos="486.40" arrivalSpeed="19.62" duration="63.20" routeLength="992.21" waitingTime="0.00" waitingCount="0" stopTime="0.00" timeLoss="11.83" rerouteNo="0" devices="tripinfo_L2-AV-2 emissions_L2-AV-2 ssm_L2-AV-2 toc_L2-AV-2 driverstateL2-AV-2" vType="L2-AV-30" speedFactor="1.18" vaporized="">
        <emissions CO_abs="2680.086663" CO2_abs="261473.316522" HC_abs="16.654758" PMx_abs="4.105777" NOx_abs="97.020808" fuel_abs="112.396187" electricity_abs="0"/>
    </tripinfo>
    <tripinfo id="L4-CV-0" depart="120.00" departLane="bottom-approaching_0" departPos="5.10" departSpeed="0.00" departDelay="0.00" arrival="229.20" arrivalLane="top-exit_0" arrivalPos="486.40" arrivalSpeed="16.26" duration="109.20" routeLength="994.90" waitingTime="36.40" waitingCount="1" stopTime="0.00" timeLoss="47.92" rerouteNo="0" devices="tripinfo_L4-CV-0 emissions_L4-CV-0 ssm_L4-CV-0 toc_L4-CV-0 driverstateL4-CV-0" vType="L4-CV-89" speedFactor="0.98" vaporized="">
        <emissions CO_abs="8324.886871" CO2_abs="334984.342410" HC_abs="42.806534" PMx_abs="5.483393" NOx_abs="129.461937" fuel_abs="143.998764" electricity_abs="0"/>
    </tripinfo>
    <tripinfo id="L2-AV-0" depart="123.00" departLane="bottom-approaching_0" departPos="5.10" departSpeed="0.00" departDelay="3.00" arrival="229.30" arrivalLane="right-exit_0" arrivalPos="486.40" arrivalSpeed="16.59" duration="106.30" routeLength="979.43" waitingTime="31.70" waitingCount="1" stopTime="0.00" timeLoss="46.32" rerouteNo="0" devices="tripinfo_L2-AV-0 emissions_L2-AV-0 ssm_L2-AV-0 toc_L2-AV-0 driverstateL2-AV-0" vType="L2-AV-56" speedFactor="1.00" vaporized="">
        <emissions CO_abs="7914.636780" CO2_abs="326752.753406" HC_abs="41.049691" PMx_abs="5.352102" NOx_abs="126.393949" fuel_abs="140.460120" electricity_abs="0"/>
    </tripinfo>
    <tripinfo id="L0-HDV-6" depart="139.40" departLane="top-approaching_0" departPos="5.10" departSpeed="0.00" departDelay="3.26" arrival="230.40" arrivalLane="bottom-exit_0" arrivalPos="486.40" arrivalSpeed="17.87" duration="91.00" routeLength="994.90" waitingTime="15.90" waitingCount="1" stopTime="0.00" timeLoss="35.28" rerouteNo="0" devices="tripinfo_L0-HDV-6 emissions_L0-HDV-6 ssm_L0-HDV-6" vType="L0-HDV-81" speedFactor="1.07" vaporized="">
        <emissions CO_abs="5928.577987" CO2_abs="267083.610956" HC_abs="32.967999" PMx_abs="4.799426" NOx_abs="107.361463" fuel_abs="114.809443" electricity_abs="0"/>
    </tripinfo>
    <tripinfo id="L0-HDV-0" depart="126.40" departLane="bottom-approaching_0" departPos="5.10" departSpeed="0.00" departDelay="6.40" arrival="230.50" arrivalLane="top-exit_0" arrivalPos="486.40" arrivalSpeed="17.30" duration="104.10" routeLength="994.90" waitingTime="30.00" waitingCount="1" stopTime="0.00" timeLoss="46.72" rerouteNo="0" devices="tripinfo_L0-HDV-0 emissions_L0-HDV-0 ssm_L0-HDV-0" vType="L0-HDV-32" speedFactor="1.04" vaporized="">
        <emissions CO_abs="8440.861336" CO2_abs="321569.570845" HC_abs="45.927459" PMx_abs="6.333384" NOx_abs="133.899638" fuel_abs="138.231163" electricity_abs="0"/>
    </tripinfo>
    <tripinfo id="L4-CV-1" depart="131.00" departLane="bottom-approaching_0" departPos="5.10" departSpeed="0.00" departDelay="0.00" arrival="231.00" arrivalLane="right-exit_0" arrivalPos="486.40" arrivalSpeed="18.62" duration="100.00" routeLength="979.43" waitingTime="20.30" waitingCount="1" stopTime="0.00" timeLoss="46.90" rerouteNo="0" devices="tripinfo_L4-CV-1 emissions_L4-CV-1 ssm_L4-CV-1 toc_L4-CV-1 driverstateL4-CV-1" vType="L4-CV-15" speedFactor="1.12" vaporized="">
        <emissions CO_abs="5289.081813" CO2_abs="277127.687467" HC_abs="29.978731" PMx_abs="4.771294" NOx_abs="109.073183" fuel_abs="119.126648" electricity_abs="0"/>
    </tripinfo>
    <tripinfo id="L0-HDV-1" depart="122.70" departLane="top-approaching_0" departPos="5.10" departSpeed="0.00" departDelay="0.01" arrival="232.40" arrivalLane="left-exit_0" arrivalPos="410.00" arrivalSpeed="15.89" duration="109.70" routeLength="979.53" waitingTime="30.30" waitingCount="1" stopTime="0.00" timeLoss="47.16" rerouteNo="0" devices="tripinfo_L0-HDV-1 emissions_L0-HDV-1 ssm_L0-HDV-1" vType="L0-HDV-81@L0-HDV-1" speedFactor="0.96" vaporized="">
        <emissions CO_abs="8015.583329" CO2_abs="284832.848563" HC_abs="42.812060" PMx_abs="5.198644" NOx_abs="115.934706" fuel_abs="122.440418" electricity_abs="0"/>
    </tripinfo>
    <tripinfo id="L0-HDV-9" depart="144.30" departLane="top-approaching_0" departPos="5.10" departSpeed="0.00" departDelay="0.09" arrival="232.50" arrivalLane="bottom-exit_0" arrivalPos="486.40" arrivalSpeed="17.79" duration="88.20" routeLength="994.90" waitingTime="12.10" waitingCount="1" stopTime="0.00" timeLoss="32.31" rerouteNo="0" devices="tripinfo_L0-HDV-9 emissions_L0-HDV-9 ssm_L0-HDV-9" vType="L0-HDV-66" speedFactor="1.07" vaporized="">
        <emissions CO_abs="5202.411425" CO2_abs="255114.812324" HC_abs="29.375623" PMx_abs="4.468341" NOx_abs="101.562294" fuel_abs="109.664301" electricity_abs="0"/>
    </tripinfo>
    <tripinfo id="L2-AV-3" depart="135.00" departLane="bottom-approaching_0" departPos="5.10" departSpeed="0.00" departDelay="0.00" arrival="233.20" arrivalLane="top-exit_0" arrivalPos="486.40" arrivalSpeed="16.74" duration="98.20" routeLength="994.90" waitingTime="0.00" waitingCount="0" stopTime="0.00" timeLoss="38.66" rerouteNo="0" devices="tripinfo_L2-AV-3 emissions_L2-AV-3 ssm_L2-AV-3 toc_L2-AV-3 driverstateL2-AV-3" vType="L2-AV-97" speedFactor="1.00" vaporized="">
        <emissions CO_abs="2797.046833" CO2_abs="245025.770340" HC_abs="16.254511" PMx_abs="3.321469" NOx_abs="89.243549" fuel_abs="105.326856" electricity_abs="0"/>
    </tripinfo>
    <tripinfo id="L0-HDV-8" depart="141.60" departLane="bottom-approaching_0" departPos="5.10" departSpeed="0.00" departDelay="0.08" arrival="233.50" arrivalLane="top-exit_1" arrivalPos="486.40" arrivalSpeed="17.89" duration="91.90" routeLength="994.90" waitingTime="0.00" waitingCount="0" stopTime="0.00" timeLoss="36.24" rerouteNo="0" devices="tripinfo_L0-HDV-8 emissions_L0-HDV-8 ssm_L0-HDV-8" vType="L0-HDV-98" speedFactor="1.07" vaporized="">
        <emissions CO_abs="3836.079351" CO2_abs="223819.894116" HC_abs="22.390853" PMx_abs="3.838173" NOx_abs="88.709300" fuel_abs="96.211263" electricity_abs="0"/>
    </tripinfo>
    <tripinfo id="L0-HDV-10" depart="149.20" departLane="bottom-approaching_0" departPos="5.10" departSpeed="0.00" departDelay="2.30" arrival="234.70" arrivalLane="right-exit_0" arrivalPos="486.40" arrivalSpeed="15.79" duration="85.50" routeLength="979.43" waitingTime="8.80" waitingCount="1" stopTime="0.00" timeLoss="22.58" rerouteNo="0" devices="tripinfo_L0-HDV-10 emissions_L0-HDV-10 ssm_L0-HDV-10" vType="L0-HDV-64" speedFactor="0.95" vaporized="">
        <emissions CO_abs="4075.656076" CO2_abs="218828.434492" HC_abs="23.389057" PMx_abs="3.692271" NOx_abs="86.650640" fuel_abs="94.065980" electricity_abs="0"/>
    </tripinfo>
    <tripinfo id="L0-HDV-5" depart="133.50" departLane="top-approaching_0" departPos="5.10" departSpeed="0.00" departDelay="0.05" arrival="235.70" arrivalLane="left-exit_1" arrivalPos="410.00" arrivalSpeed="20.08" duration="102.20" routeLength="979.53" waitingTime="33.70" waitingCount="2" stopTime="0.00" timeLoss="52.53" rerouteNo="0" devices="tripinfo_L0-HDV-5 emissions_L0-HDV-5 ssm_L0-HDV-5" vType="L0-HDV-1@L0-HDV-5" speedFactor="1.20" vaporized="">
        <emissions CO_abs="8951.040484" CO2_abs="285892.947263" HC_abs="47.290942" PMx_abs="6.214667" NOx_abs="122.674166" fuel_abs="122.895392" electricity_abs="0"/>
    </tripinfo>
    <tripinfo id="L4-CV-3" depart="157.40" departLane="top-approaching_0" departPos="5.10" departSpeed="0.00" departDelay="4.40" arrival="238.70" arrivalLane="bottom-exit_0" arrivalPos="486.40" arrivalSpeed="14.64" duration="81.30" routeLength="994.90" waitingTime="0.00" waitingCount="0" stopTime="0.00" timeLoss="13.27" rerouteNo="0" devices="tripinfo_L4-CV-3 emissions_L4-CV-3 ssm_L4-CV-3 toc_L4-CV-3 driverstateL4-CV-3" vType="L4-CV-22" speedFactor="0.88" vaporized="">
        <emissions CO_abs="2259.661152" CO2_abs="238230.567753" HC_abs="13.747766" PMx_abs="2.690426" NOx_abs="84.012381" fuel_abs="102.406254" electricity_abs="0"/>
    </tripinfo>
    <tripinfo id="L0-HDV-18" depart="168.50" departLane="top-approaching_0" departPos="5.10" departSpeed="0.00" departDelay="0.08" arrival="242.50" arrivalLane="right-exit_0" arrivalPos="486.40" arrivalSpeed="14.48" duration="74.00" routeLength="992.21" waitingTime="0.00" waitingCount="0" stopTime="0.00" timeLoss="4.79" rerouteNo="0" devices="tripinfo_L0-HDV-18 emissions_L0-HDV-18 ssm_L0-HDV-18" vType="L0-HDV-76" speedFactor="0.87" vaporized="">
        <emissions CO_abs="2178.686231" CO2_abs="188653.646763" HC_abs="14.253316" PMx_abs="3.076046" NOx_abs="74.108440" fuel_abs="81.094031" electricity_abs="0"/>
    </tripinfo>
    <tripinfo id="L2-CV-11" depart="175.00" departLane="top-approaching_0" departPos="5.10" departSpeed="0.00" departDelay="0.00" arrival="244.40" arrivalLane="right-exit_0" arrivalPos="486.40" arrivalSpeed="16.22" duration="69.40" routeLength="992.21" waitingTime="0.00" waitingCount="0" stopTime="0.00" timeLoss="7.25" rerouteNo="0" devices="tripinfo_L2-CV-11 emissions_L2-CV-11 ssm_L2-CV-11 toc_L2-CV-11 driverstateL2-CV-11" vType="L2-CV-11" speedFactor="0.97" vaporized="">
        <emissions CO_abs="1858.338435" CO2_abs="227469.757775" HC_abs="11.598038" PMx_abs="2.902784" NOx_abs="81.279896" fuel_abs="97.779891" electricity_abs="0"/>
    </tripinfo>
    <tripinfo id="L2-AV-11" depart="177.80" departLane="top-approaching_0" departPos="5.10" departSpeed="0.00" departDelay="2.80" arrival="250.40" arrivalLane="right-exit_0" arrivalPos="486.40" arrivalSpeed="16.81" duration="72.60" routeLength="992.21" waitingTime="0.00" waitingCount="0" stopTime="0.00" timeLoss="12.58" rerouteNo="0" devices="tripinfo_L2-AV-11 emissions_L2-AV-11 ssm_L2-AV-11 toc_L2-AV-11 driverstateL2-AV-11" vType="L2-AV-97" speedFactor="1.01" vaporized="">
        <emissions CO_abs="2473.298891" CO2_abs="238553.952271" HC_abs="14.579822" PMx_abs="3.256721" NOx_abs="87.080193" fuel_abs="102.544600" electricity_abs="0"/>
    </tripinfo>
    <tripinfo id="L0-HDV-24" depart="186.10" departLane="top-approaching_0" departPos="5.10" departSpeed="0.00" departDelay="1.54" arrival="250.50" arrivalLane="right-exit_1" arrivalPos="486.40" arrivalSpeed="19.86" duration="64.40" routeLength="992.21" waitingTime="0.00" waitingCount="0" stopTime="0.00" timeLoss="13.73" rerouteNo="0" devices="tripinfo_L0-HDV-24 emissions_L0-HDV-24 ssm_L0-HDV-24" vType="L0-HDV-21" speedFactor="1.19" vaporized="">
        <emissions CO_abs="3172.617460" CO2_abs="239407.462430" HC_abs="20.137660" PMx_abs="4.599511" NOx_abs="97.972412" fuel_abs="102.910255" electricity_abs="0"/>
    </tripinfo>
    <tripinfo id="L0-HDV-17" depart="167.50" departLane="left-long-approaching_0" departPos="5.10" departSpeed="0.00" departDelay="1.77" arrival="273.00" arrivalLane="bottom-exit_1" arrivalPos="486.40" arrivalSpeed="22.58" duration="105.50" routeLength="979.53" waitingTime="44.60" waitingCount="1" stopTime="0.00" timeLoss="61.39" rerouteNo="0" devices="tripinfo_L0-HDV-17 emissions_L0-HDV-17 ssm_L0-HDV-17" vType="L0-HDV-1" speedFactor="1.36" vaporized="">
        <emissions CO_abs="11737.351081" CO2_abs="397862.137171" HC_abs="62.996194" PMx_abs="8.707841" NOx_abs="170.168897" fuel_abs="171.026504" electricity_abs="0"/>
    </tripinfo>
    <tripinfo id="L2-AV-4" depart="145.30" departLane="left-long-approaching_0" departPos="5.10" departSpeed="0.00" departDelay="5.30" arrival="276.20" arrivalLane="bottom-exit_0" arrivalPos="486.40" arrivalSpeed="17.85" duration="130.90" routeLength="979.53" waitingTime="61.10" waitingCount="1" stopTime="0.00" timeLoss="75.06" rerouteNo="0" devices="tripinfo_L2-AV-4 emissions_L2-AV-4 ssm_L2-AV-4 toc_L2-AV-4 driverstateL2-AV-4" vType="L2-AV-Right-95" speedFactor="1.07" vaporized="">
        <emissions CO_abs="12698.995038" CO2_abs="404707.696104" HC_abs="64.815254" PMx_abs="7.605496" NOx_abs="163.285582" fuel_abs="173.971434" electricity_abs="0"/>
    </tripinfo>
    <tripinfo id="L2-AV-8" depart="160.00" departLane="right-approaching_0" departPos="5.10" departSpeed="0.00" departDelay="0.00" arrival="276.40" arrivalLane="top-exit_0" arrivalPos="486.40" arrivalSpeed="17.21" duration="116.40" routeLength="979.43" waitingTime="47.50" waitingCount="1" stopTime="0.00" timeLoss="58.50" rerouteNo="0" devices="tripinfo_L2-AV-8 emissions_L2-AV-8 ssm_L2-AV-8 toc_L2-AV-8 driverstateL2-AV-8" vType="L2-AV-38" speedFactor="1.03" vaporized="">
        <emissions CO_abs="10202.420991" CO2_abs="364689.004371" HC_abs="52.270292" PMx_abs="6.465964" NOx_abs="144.161155" fuel_abs="156.768113" electricity_abs="0"/>
    </tripinfo>
    <tripinfo id="L2-AV-14" depart="190.00" departLane="right-approaching_0" departPos="5.10" departSpeed="0.00" departDelay="0.00" arrival="278.30" arrivalLane="top-exit_0" arrivalPos="486.40" arrivalSpeed="20.44" duration="88.30" routeLength="979.43" waitingTime="0.00" waitingCount="0" stopTime="0.00" timeLoss="39.52" rerouteNo="0" devices="tripinfo_L2-AV-14 emissions_L2-AV-14 ssm_L2-AV-14 toc_L2-AV-14 driverstateL2-AV-14" vType="L2-AV-99" speedFactor="1.23" vaporized="">
        <emissions CO_abs="2965.007706" CO2_abs="213797.636047" HC_abs="17.803715" PMx_abs="3.564351" NOx_abs="83.673464" fuel_abs="91.902615" electricity_abs="0"/>
    </tripinfo>
    <tripinfo id="L2-CV-12" depart="180.00" departLane="left-long-approaching_0" departPos="5.10" departSpeed="0.00" departDelay="0.00" arrival="280.50" arrivalLane="bottom-exit_0" arrivalPos="486.40" arrivalSpeed="17.60" duration="100.50" routeLength="979.53" waitingTime="26.60" waitingCount="1" stopTime="0.00" timeLoss="43.99" rerouteNo="0" devices="tripinfo_L2-CV-12 emissions_L2-CV-12 ssm_L2-CV-12 toc_L2-CV-12 driverstateL2-CV-12" vType="L2-CV-Right-19" speedFactor="1.06" vaporized="">
        <emissions CO_abs="4580.649482" CO2_abs="283204.082097" HC_abs="25.485109" PMx_abs="4.375735" NOx_abs="106.415807" fuel_abs="121.738651" electricity_abs="0"/>
    </tripinfo>
    <tripinfo id="L0-HDV-7" depart="138.90" departLane="left-long-approaching_0" departPos="5.10" departSpeed="0.00" departDelay="0.07" arrival="280.60" arrivalLane="right-exit_0" arrivalPos="486.40" arrivalSpeed="17.27" duration="141.70" routeLength="995.23" waitingTime="65.00" waitingCount="1" stopTime="0.00" timeLoss="83.97" rerouteNo="0" devices="tripinfo_L0-HDV-7 emissions_L0-HDV-7 ssm_L0-HDV-7" vType="L0-HDV-Straight-37" speedFactor="1.04" vaporized="">
        <emissions CO_abs="13847.933746" CO2_abs="390850.099084" HC_abs="71.988811" PMx_abs="7.929975" NOx_abs="164.509699" fuel_abs="168.015032" electricity_abs="0"/>
    </tripinfo>
    <tripinfo id="L2-CV-4" depart="142.50" departLane="left-long-approaching_0" departPos="5.10" departSpeed="0.00" departDelay="2.50" arrival="282.80" arrivalLane="right-exit_0" arrivalPos="486.40" arrivalSpeed="16.45" duration="140.30" routeLength="995.23" waitingTime="59.40" waitingCount="1" stopTime="0.00" timeLoss="79.89" rerouteNo="0" devices="tripinfo_L2-CV-4 emissions_L2-CV-4 ssm_L2-CV-4 toc_L2-CV-4 driverstateL2-CV-4" vType="L2-CV-48@L2-CV-4" speedFactor="0.99" vaporized="">
        <emissions CO_abs="10617.479872" CO2_abs="373796.198931" HC_abs="54.490164" PMx_abs="6.437749" NOx_abs="147.367342" fuel_abs="160.683390" electricity_abs="0"/>
    </tripinfo>
    <tripinfo id="L2-CV-10" depart="170.10" departLane="left-long-approaching_0" departPos="5.10" departSpeed="0.00" departDelay="0.10" arrival="285.00" arrivalLane="right-exit_0" arrivalPos="486.40" arrivalSpeed="17.04" duration="114.90" routeLength="995.23" waitingTime="21.60" waitingCount="25" stopTime="0.00" timeLoss="56.44" rerouteNo="0" devices="tripinfo_L2-CV-10 emissions_L2-CV-10 ssm_L2-CV-10 toc_L2-CV-10 driverstateL2-CV-10" vType="L2-CV-15@L2-CV-10" speedFactor="1.02" vaporized="">
        <emissions CO_abs="6187.380081" CO2_abs="315527.358133" HC_abs="33.719092" PMx_abs="4.994402" NOx_abs="121.096797" fuel_abs="135.633837" electricity_abs="0"/>
    </tripinfo>
    <tripinfo id="L2-AV-15" depart="195.00" departLane="right-approaching_0" departPos="5.10" departSpeed="0.00" departDelay="0.00" arrival="286.80" arrivalLane="top-exit_0" arrivalPos="486.40" arrivalSpeed="16.86" duration="91.80" routeLength="979.43" waitingTime="0.00" waitingCount="0" stopTime="0.00" timeLoss="32.70" rerouteNo="0" devices="tripinfo_L2-AV-15 emissions_L2-AV-15 ssm_L2-AV-15 toc_L2-AV-15 driverstateL2-AV-15" vType="L2-AV-0" speedFactor="1.01" vaporized="">
        <emissions CO_abs="3189.872890" CO2_abs="220352.132638" HC_abs="18.409848" PMx_abs="3.333439" NOx_abs="84.192206" fuel_abs="94.720642" electricity_abs="0"/>
    </tripinfo>
    <tripinfo id="L0-HDV-33" depart="208.80" departLane="right-approaching_0" departPos="5.10" departSpeed="0.00" departDelay="0.03" arrival="288.10" arrivalLane="top-exit_0" arrivalPos="486.40" arrivalSpeed="16.53" duration="79.30" routeLength="979.43" waitingTime="0.00" waitingCount="0" stopTime="0.00" timeLoss="19.37" rerouteNo="0" devices="tripinfo_L0-HDV-33 emissions_L0-HDV-33 ssm_L0-HDV-33" vType="L0-HDV-33" speedFactor="1.00" vaporized="">
        <emissions CO_abs="3067.663048" CO2_abs="208238.066807" HC_abs="18.718225" PMx_abs="3.655221" NOx_abs="83.608770" fuel_abs="89.512670" electricity_abs="0"/>
    </tripinfo>
    <tripinfo id="L2-CV-13" depart="186.90" departLane="left-long-approaching_0" departPos="5.10" departSpeed="0.00" departDelay="1.90" arrival="288.40" arrivalLane="right-exit_0" arrivalPos="486.40" arrivalSpeed="16.42" duration="101.50" routeLength="995.23" waitingTime="7.10" waitingCount="27" stopTime="0.00" timeLoss="40.74" rerouteNo="0" devices="tripinfo_L2-CV-13 emissions_L2-CV-13 ssm_L2-CV-13 toc_L2-CV-13 driverstateL2-CV-13" vType="L2-CV-85@L2-CV-13" speedFactor="0.98" vaporized="">
        <emissions CO_abs="4920.386522" CO2_abs="289915.176428" HC_abs="27.143551" PMx_abs="4.204643" NOx_abs="108.452412" fuel_abs="124.623993" electricity_abs="0"/>
    </tripinfo>
    <tripinfo id="L4-AV-6" depart="190.70" departLane="left-long-approaching_0" departPos="5.10" departSpeed="0.00" departDelay="4.70" arrival="289.30" arrivalLane="top-exit_0" arrivalPos="486.40" arrivalSpeed="17.30" duration="98.60" routeLength="992.31" waitingTime="24.20" waitingCount="2" stopTime="0.00" timeLoss="40.30" rerouteNo="0" devices="tripinfo_L4-AV-6 emissions_L4-AV-6 ssm_L4-AV-6 toc_L4-AV-6 driverstateL4-AV-6" vType="L4-AV-Left-28" speedFactor="1.04" vaporized="">
        <emissions CO_abs="6738.409737" CO2_abs="269570.903769" HC_abs="35.850582" PMx_abs="4.893118" NOx_abs="108.339709" fuel_abs="115.879083" electricity_abs="0"/>
    </tripinfo>
    <tripinfo id="L2-AV-12" depart="182.80" departLane="left-long-approaching_0" departPos="5.10" departSpeed="0.00" departDelay="2.80" arrival="290.10" arrivalLane="bottom-exit_0" arrivalPos="486.40" arrivalSpeed="17.81" duration="107.30" routeLength="979.53" waitingTime="0.10" waitingCount="1" stopTime="0.00" timeLoss="51.35" rerouteNo="0" devices="tripinfo_L2-AV-12 emissions_L2-AV-12 ssm_L2-AV-12 toc_L2-AV-12 driverstateL2-AV-12" vType="L2-AV-Right-35" speedFactor="1.07" vaporized="">
        <emissions CO_abs="4320.353140" CO2_abs="274233.002978" HC_abs="24.711279" PMx_abs="4.061156" NOx_abs="103.593248" fuel_abs="117.882437" electricity_abs="0"/>
    </tripinfo>
    <tripinfo id="L0-HDV-35" depart="214.20" departLane="left-long-approaching_0" departPos="5.10" departSpeed="0.00" departDelay="0.05" arrival="292.00" arrivalLane="bottom-exit_0" arrivalPos="486.40" arrivalSpeed="17.68" duration="77.80" routeLength="979.53" waitingTime="0.00" waitingCount="0" stopTime="0.00" timeLoss="21.62" rerouteNo="0" devices="tripinfo_L0-HDV-35 emissions_L0-HDV-35 ssm_L0-HDV-35" vType="L0-HDV-73" speedFactor="1.06" vaporized="">
        <emissions CO_abs="3435.290043" CO2_abs="228459.789530" HC_abs="20.797620" PMx_abs="3.839817" NOx_abs="89.868355" fuel_abs="98.205520" electricity_abs="0"/>
    </tripinfo>
    <tripinfo id="L2-CV-15" depart="195.00" departLane="left-long-approaching_0" departPos="5.10" departSpeed="0.00" departDelay="0.00" arrival="294.90" arrivalLane="top-exit_1" arrivalPos="486.40" arrivalSpeed="17.21" duration="99.90" routeLength="992.31" waitingTime="6.90" waitingCount="4" stopTime="0.00" timeLoss="41.33" rerouteNo="0" devices="tripinfo_L2-CV-15 emissions_L2-CV-15 ssm_L2-CV-15 toc_L2-CV-15 driverstateL2-CV-15" vType="L2-CV-Left-94" speedFactor="1.03" vaporized="">
        <emissions CO_abs="4182.208930" CO2_abs="277227.408030" HC_abs="23.806881" PMx_abs="4.035305" NOx_abs="103.485190" fuel_abs="119.169585" electricity_abs="0"/>
    </tripinfo>
    <tripinfo id="L0-HDV-25" depart="190.80" departLane="left-long-approaching_0" departPos="5.10" departSpeed="0.00" departDelay="3.55" arrival="295.70" arrivalLane="right-exit_1" arrivalPos="486.40" arrivalSpeed="20.16" duration="104.90" routeLength="995.23" waitingTime="0.00" waitingCount="0" stopTime="0.00" timeLoss="55.72" rerouteNo="0" devices="tripinfo_L0-HDV-25 emissions_L0-HDV-25 ssm_L0-HDV-25" vType="L0-HDV-Straight-23" speedFactor="1.22" vaporized="">
        <emissions CO_abs="6503.361898" CO2_abs="317036.305808" HC_abs="37.080619" PMx_abs="5.868205" NOx_abs="128.895063" fuel_abs="136.281582" electricity_abs="0"/>
    </tripinfo>
    <tripinfo id="L4-AV-4" depart="164.00" departLane="left-long-approaching_0" departPos="5.10" departSpeed="0.00" departDelay="0.00" arrival="296.40" arrivalLane="right-exit_0" arrivalPos="486.40" arrivalSpeed="15.96" duration="132.40" routeLength="995.23" waitingTime="0.00" waitingCount="0" stopTime="0.00" timeLoss="69.89" rerouteNo="0" devices="tripinfo_L4-AV-4 emissions_L4-AV-4 ssm_L4-AV-4 toc_L4-AV-4 driverstateL4-AV-4" vType="L4-AV-10" speedFactor="0.96" vaporized="">
        <emissions CO_abs="4172.738865" CO2_abs="262895.412469" HC_abs="22.837290" PMx_abs="3.728064" NOx_abs="97.974330" fuel_abs="113.008958" electricity_abs="0"/>
    </tripinfo>
    <tripinfo id="L2-CV-6" depart="150.00" departLane="left-long-approaching_0" departPos="5.10" departSpeed="0.00" departDelay="0.00" arrival="297.00" arrivalLane="top-exit_0" arrivalPos="486.40" arrivalSpeed="14.71" duration="147.00" routeLength="997.47" waitingTime="53.10" waitingCount="26" stopTime="0.00" timeLoss="78.27" rerouteNo="0" devices="tripinfo_L2-CV-6 emissions_L2-CV-6 ssm_L2-CV-6 toc_L2-CV-6 driverstateL2-CV-6" vType="L2-CV-Left-20@L2-CV-6" speedFactor="0.88" vaporized="">
        <emissions CO_abs="10436.542010" CO2_abs="373765.786776" HC_abs="54.258520" PMx_abs="6.115824" NOx_abs="146.555154" fuel_abs="160.670652" electricity_abs="0"/>
    </tripinfo>
    <tripinfo id="L0-HDV-42" depart="233.00" departLane="right-approaching_0" departPos="5.10" departSpeed="0.00" departDelay="0.02" arrival="298.90" arrivalLane="top-exit_1" arrivalPos="486.40" arrivalSpeed="19.11" duration="65.90" routeLength="979.43" waitingTime="0.00" waitingCount="0" stopTime="0.00" timeLoss="13.81" rerouteNo="0" devices="tripinfo_L0-HDV-42 emissions_L0-HDV-42 ssm_L0-HDV-42" vType="L0-HDV-86" speedFactor="1.15" vaporized="">
        <emissions CO_abs="2866.733243" CO2_abs="228182.872826" HC_abs="18.312926" PMx_abs="3.917222" NOx_abs="89.525927" fuel_abs="98.085969" electricity_abs="0"/>
    </tripinfo>
    <tripinfo id="L0-HDV-38" depart="223.30" departLane="left-long-approaching_0" departPos="5.10" departSpeed="0.00" departDelay="1.08" arrival="299.00" arrivalLane="bottom-exit_0" arrivalPos="486.40" arrivalSpeed="14.51" duration="75.70" routeLength="979.53" waitingTime="0.00" waitingCount="0" stopTime="0.00" timeLoss="7.04" rerouteNo="0" devices="tripinfo_L0-HDV-38 emissions_L0-HDV-38 ssm_L0-HDV-38" vType="L0-HDV-31" speedFactor="0.87" vaporized="">
        <emissions CO_abs="1718.521558" CO2_abs="153351.521948" HC_abs="10.994277" PMx_abs="2.174637" NOx_abs="57.791094" fuel_abs="65.919609" electricity_abs="0"/>
    </tripinfo>
    <tripinfo id="L2-AV-7" depart="158.30" departLane="right-approaching_0" departPos="5.10" departSpeed="0.00" departDelay="3.30" arrival="303.30" arrivalLane="bottom-exit_0" arrivalPos="486.40" arrivalSpeed="17.68" duration="145.00" routeLength="992.21" waitingTime="67.50" waitingCount="2" stopTime="0.00" timeLoss="87.95" rerouteNo="0" devices="tripinfo_L2-AV-7 emissions_L2-AV-7 ssm_L2-AV-7 toc_L2-AV-7 driverstateL2-AV-7" vType="L2-AV-89" speedFactor="1.06" vaporized="">