<?xml version="1.0" encoding="UTF-8"?>

<!-- generated on 03/28/21 23:57:42 by Eclipse SUMO sumo Version 1.8.0
<configuration xmlns:xsi="http://www.w3.org/2001/XMLSchema-instance" xsi:noNamespaceSchemaLocation="http://sumo.dlr.de/xsd/sumoConfiguration.xsd">

    <input>
        <net-file value="Collision\RealTMSPenetration2\../CollisionIntersection.net.xml"/>
        <route-files value="Collision\RealTMSPenetration2\../CrashedVehicleRoutes.rou.xml,Collision\RealTMSPenetration2\Route-Files/L4-CV-Route.rou.xml,Collision\RealTMSPenetration2\Route-Files/L4-AV-Route.rou.xml,Collision\RealTMSPenetration2\Route-Files/L2-CV-Route.rou.xml,Collision\RealTMSPenetration2\Route-Files/L2-AV-Route.rou.xml,Collision\RealTMSPenetration2\Route-Files/L0-HDV-Route.rou.xml"/>
        <additional-files value="Collision\RealTMSPenetration2\../Additional-Files/Collision-Detectors.add.xml,Collision\RealTMSPenetration2\../Additional-Files/Collision-TMS-Rerouters.add.xml,Collision\RealTMSPenetration2\PreparingVehicleModels/Vehicle-Models/L4-CV.add.xml,Collision\RealTMSPenetration2\PreparingVehicleModels/Vehicle-Models/L4-CV-Left.add.xml,Collision\RealTMSPenetration2\PreparingVehicleModels/Vehicle-Models/L4-CV-Right.add.xml,Collision\RealTMSPenetration2\PreparingVehicleModels/Vehicle-Models/L4-AV.add.xml,Collision\RealTMSPenetration2\PreparingVehicleModels/Vehicle-Models/L4-AV-Left.add.xml,Collision\RealTMSPenetration2\PreparingVehicleModels/Vehicle-Models/L4-AV-Right.add.xml,Collision\RealTMSPenetration2\PreparingVehicleModels/Vehicle-Models/L2-CV.add.xml,Collision\RealTMSPenetration2\PreparingVehicleModels/Vehicle-Models/L2-CV-Left.add.xml,Collision\RealTMSPenetration2\PreparingVehicleModels/Vehicle-Models/L2-CV-Right.add.xml,Collision\RealTMSPenetration2\PreparingVehicleModels/Vehicle-Models/L2-AV.add.xml,Collision\RealTMSPenetration2\PreparingVehicleModels/Vehicle-Models/L2-AV-Left.add.xml,Collision\RealTMSPenetration2\PreparingVehicleModels/Vehicle-Models/L2-AV-Right.add.xml,Collision\RealTMSPenetration2\PreparingVehicleModels/Vehicle-Models/L0-HDV.add.xml,Collision\RealTMSPenetration2\PreparingVehicleModels/Vehicle-Models/L0-HDV-Left.add.xml,Collision\RealTMSPenetration2\PreparingVehicleModels/Vehicle-Models/L0-HDV-Straight.add.xml,Collision\RealTMSPenetration2\../Additional-Files/Collision-Traffic-lights.add.xml,Collision\RealTMSPenetration2\../Additional-Files/Collision-Traffic-Signs.add.xml"/>
    </input>

    <output>
        <tripinfo-output value="Collision\RealTMSPenetration2\Output-Files\TripInfo.xml"/>
    </output>

    <time>
        <begin value="0"/>
        <step-length value="0.1"/>
    </time>

    <processing>
        <ignore-route-errors value="true"/>
        <waiting-time-memory value="300"/>
        <default.action-step-length value="0.1"/>
    </processing>

    <report>
        <no-warnings value="true"/>
    </report>

    <emissions>
        <device.emissions.probability value="1"/>
    </emissions>

    <traci_server>
        <remote-port value="49847"/>
    </traci_server>

    <gui_only>
        <quit-on-end value="true"/>
        <start value="true"/>
        <tracker-interval value="0.1"/>
    </gui_only>

</configuration>
-->

<tripinfos xmlns:xsi="http://www.w3.org/2001/XMLSchema-instance" xsi:noNamespaceSchemaLocation="http://sumo.dlr.de/xsd/tripinfo_file.xsd">
    <tripinfo id="L0-HDV-3" depart="134.00" departLane="right-approaching_0" departPos="5.10" departSpeed="0.00" departDelay="0.05" arrival="197.70" arrivalLane="top-exit_0" arrivalPos="486.40" arrivalSpeed="17.24" duration="63.70" routeLength="979.43" waitingTime="0.00" waitingCount="0" stopTime="0.00" timeLoss="6.06" rerouteNo="0" devices="tripinfo_L0-HDV-3 emissions_L0-HDV-3 ssm_L0-HDV-3" vType="L0-HDV-47" speedFactor="1.04" vaporized="">
        <emissions CO_abs="2107.808278" CO2_abs="190197.994424" HC_abs="13.833619" PMx_abs="3.249050" NOx_abs="74.492213" fuel_abs="81.757666" electricity_abs="0"/>
    </tripinfo>
    <tripinfo id="L0-HDV-6" depart="147.90" departLane="top-approaching_0" departPos="5.10" departSpeed="0.00" departDelay="0.00" arrival="233.50" arrivalLane="bottom-exit_0" arrivalPos="486.40" arrivalSpeed="17.73" duration="85.60" routeLength="994.90" waitingTime="20.20" waitingCount="1" stopTime="0.00" timeLoss="29.39" rerouteNo="0" devices="tripinfo_L0-HDV-6 emissions_L0-HDV-6 ssm_L0-HDV-6" vType="L0-HDV-21" speedFactor="1.06" vaporized="">
        <emissions CO_abs="6777.442016" CO2_abs="304763.498816" HC_abs="38.047515" PMx_abs="6.207433" NOx_abs="127.805532" fuel_abs="131.005523" electricity_abs="0"/>
    </tripinfo>
    <tripinfo id="L4-CV-1" depart="138.00" departLane="bottom-approaching_0" departPos="5.10" departSpeed="0.00" departDelay="0.00" arrival="235.10" arrivalLane="right-exit_0" arrivalPos="486.40" arrivalSpeed="18.72" duration="97.10" routeLength="979.43" waitingTime="26.90" waitingCount="1" stopTime="0.00" timeLoss="43.87" rerouteNo="0" devices="tripinfo_L4-CV-1 emissions_L4-CV-1 ssm_L4-CV-1 toc_L4-CV-1 driverstateL4-CV-1" vType="L4-CV-15" speedFactor="1.12" vaporized="">
        <emissions CO_abs="7549.104885" CO2_abs="333530.588767" HC_abs="40.175352" PMx_abs="5.788719" NOx_abs="130.150956" fuel_abs="143.372956" electricity_abs="0"/>
    </tripinfo>
    <tripinfo id="L0-HDV-9" depart="161.90" departLane="top-approaching_0" departPos="5.10" departSpeed="0.00" departDelay="0.05" arrival="237.30" arrivalLane="bottom-exit_1" arrivalPos="486.40" arrivalSpeed="20.65" duration="75.40" routeLength="994.90" waitingTime="1.40" waitingCount="1" stopTime="0.00" timeLoss="27.26" rerouteNo="0" devices="tripinfo_L0-HDV-9 emissions_L0-HDV-9 ssm_L0-HDV-9" vType="L0-HDV-77" speedFactor="1.24" vaporized="">
        <emissions CO_abs="3644.420991" CO2_abs="240200.256827" HC_abs="22.244410" PMx_abs="4.438672" NOx_abs="96.991243" fuel_abs="103.251719" electricity_abs="0"/>
    </tripinfo>
    <tripinfo id="L0-HDV-10" depart="166.50" departLane="bottom-approaching_0" departPos="5.10" departSpeed="0.00" departDelay="0.00" arrival="237.30" arrivalLane="right-exit_1" arrivalPos="486.40" arrivalSpeed="23.87" duration="70.80" routeLength="979.43" waitingTime="0.00" waitingCount="0" stopTime="0.00" timeLoss="29.10" rerouteNo="0" devices="tripinfo_L0-HDV-10 emissions_L0-HDV-10 ssm_L0-HDV-10" vType="L0-HDV-2" speedFactor="1.44" vaporized="">
        <emissions CO_abs="4740.495176" CO2_abs="279232.225009" HC_abs="28.339056" PMx_abs="5.739665" NOx_abs="116.413904" fuel_abs="120.029448" electricity_abs="0"/>
    </tripinfo>
    <tripinfo id="L4-CV-0" depart="120.00" departLane="bottom-approaching_0" departPos="5.10" departSpeed="0.00" departDelay="0.00" arrival="239.60" arrivalLane="top-exit_0" arrivalPos="486.40" arrivalSpeed="16.26" duration="119.60" routeLength="994.90" waitingTime="41.40" waitingCount="1" stopTime="0.00" timeLoss="58.30" rerouteNo="0" devices="tripinfo_L4-CV-0 emissions_L4-CV-0 ssm_L4-CV-0 toc_L4-CV-0 driverstateL4-CV-0" vType="L4-CV-89" speedFactor="0.98" vaporized="">
        <emissions CO_abs="9627.022034" CO2_abs="355336.325653" HC_abs="49.506289" PMx_abs="5.955692" NOx_abs="138.997457" fuel_abs="152.747893" electricity_abs="0"/>
    </tripinfo>
    <tripinfo id="L0-HDV-0" depart="123.60" departLane="bottom-approaching_0" departPos="5.10" departSpeed="0.00" departDelay="3.60" arrival="239.60" arrivalLane="top-exit_1" arrivalPos="486.40" arrivalSpeed="17.28" duration="116.00" routeLength="994.90" waitingTime="40.40" waitingCount="1" stopTime="0.00" timeLoss="58.57" rerouteNo="0" devices="tripinfo_L0-HDV-0 emissions_L0-HDV-0 ssm_L0-HDV-0" vType="L0-HDV-32" speedFactor="1.04" vaporized="">
        <emissions CO_abs="10251.016633" CO2_abs="349320.566368" HC_abs="54.817467" PMx_abs="6.997271" NOx_abs="146.382249" fuel_abs="150.161046" electricity_abs="0"/>
    </tripinfo>
    <tripinfo id="L2-CV-4" depart="156.00" departLane="top-approaching_0" departPos="5.10" departSpeed="0.00" departDelay="0.00" arrival="241.40" arrivalLane="bottom-exit_0" arrivalPos="486.40" arrivalSpeed="15.01" duration="85.40" routeLength="994.90" waitingTime="1.60" waitingCount="1" stopTime="0.00" timeLoss="19.05" rerouteNo="0" devices="tripinfo_L2-CV-4 emissions_L2-CV-4 ssm_L2-CV-4 toc_L2-CV-4 driverstateL2-CV-4" vType="L2-CV-4" speedFactor="0.90" vaporized="">
        <emissions CO_abs="2477.045619" CO2_abs="243681.167629" HC_abs="14.879483" PMx_abs="2.899334" NOx_abs="86.669210" fuel_abs="104.749205" electricity_abs="0"/>
    </tripinfo>
    <tripinfo id="L0-HDV-8" depart="162.50" departLane="bottom-approaching_0" departPos="5.10" departSpeed="0.00" departDelay="5.30" arrival="242.10" arrivalLane="top-exit_0" arrivalPos="486.40" arrivalSpeed="16.69" duration="79.60" routeLength="994.90" waitingTime="2.10" waitingCount="1" stopTime="0.00" timeLoss="20.06" rerouteNo="0" devices="tripinfo_L0-HDV-8 emissions_L0-HDV-8 ssm_L0-HDV-8" vType="L0-HDV-91" speedFactor="1.00" vaporized="">
        <emissions CO_abs="4201.841873" CO2_abs="263808.596215" HC_abs="25.312598" PMx_abs="4.898516" NOx_abs="107.810990" fuel_abs="113.399940" electricity_abs="0"/>
    </tripinfo>
    <tripinfo id="L2-AV-4" depart="159.20" departLane="top-approaching_0" departPos="5.10" departSpeed="0.00" departDelay="3.20" arrival="243.60" arrivalLane="bottom-exit_0" arrivalPos="486.40" arrivalSpeed="16.42" duration="84.40" routeLength="994.90" waitingTime="2.80" waitingCount="2" stopTime="0.00" timeLoss="23.69" rerouteNo="0" devices="tripinfo_L2-AV-4 emissions_L2-AV-4 ssm_L2-AV-4 toc_L2-AV-4 driverstateL2-AV-4" vType="L2-AV-85" speedFactor="0.98" vaporized="">
        <emissions CO_abs="3605.939734" CO2_abs="228646.230751" HC_abs="20.191402" PMx_abs="3.406961" NOx_abs="86.563805" fuel_abs="98.286282" electricity_abs="0"/>
    </tripinfo>
    <tripinfo id="L4-AV-2" depart="156.00" departLane="bottom-approaching_0" departPos="5.10" departSpeed="0.00" departDelay="0.00" arrival="247.80" arrivalLane="right-exit_0" arrivalPos="486.40" arrivalSpeed="13.99" duration="91.80" routeLength="979.43" waitingTime="0.00" waitingCount="0" stopTime="0.00" timeLoss="20.60" rerouteNo="0" devices="tripinfo_L4-AV-2 emissions_L4-AV-2 ssm_L4-AV-2 toc_L4-AV-2 driverstateL4-AV-2" vType="L4-AV-74" speedFactor="0.84" vaporized="">
        <emissions CO_abs="2430.616945" CO2_abs="233108.533929" HC_abs="14.774759" PMx_abs="2.689174" NOx_abs="83.284269" fuel_abs="100.204576" electricity_abs="0"/>
    </tripinfo>
    <tripinfo id="L4-CV-3" depart="174.30" departLane="top-approaching_0" departPos="5.10" departSpeed="0.00" departDelay="0.30" arrival="249.60" arrivalLane="bottom-exit_0" arrivalPos="486.40" arrivalSpeed="14.64" duration="75.30" routeLength="994.90" waitingTime="0.00" waitingCount="0" stopTime="0.00" timeLoss="7.22" rerouteNo="0" devices="tripinfo_L4-CV-3 emissions_L4-CV-3 ssm_L4-CV-3 toc_L4-CV-3 driverstateL4-CV-3" vType="L4-CV-22" speedFactor="0.88" vaporized="">
        <emissions CO_abs="1340.081527" CO2_abs="206720.096103" HC_abs="8.498336" PMx_abs="1.870981" NOx_abs="68.753342" fuel_abs="88.861294" electricity_abs="0"/>
    </tripinfo>
    <tripinfo id="L0-HDV-1" depart="124.70" departLane="top-approaching_0" departPos="5.10" departSpeed="0.00" departDelay="0.05" arrival="250.70" arrivalLane="left-exit_0" arrivalPos="810.00" arrivalSpeed="20.25" duration="126.00" routeLength="1379.53" waitingTime="44.20" waitingCount="1" stopTime="0.00" timeLoss="57.02" rerouteNo="0" devices="tripinfo_L0-HDV-1 emissions_L0-HDV-1 ssm_L0-HDV-1" vType="L0-HDV-47@L0-HDV-1" speedFactor="1.22" vaporized="">
        <emissions CO_abs="10687.543861" CO2_abs="393557.688836" HC_abs="57.943864" PMx_abs="8.091060" NOx_abs="163.345414" fuel_abs="169.176331" electricity_abs="0"/>
    </tripinfo>
    <tripinfo id="L2-AV-7" depart="186.50" departLane="bottom-approaching_0" departPos="5.10" departSpeed="0.00" departDelay="3.50" arrival="257.60" arrivalLane="top-exit_1" arrivalPos="486.40" arrivalSpeed="16.79" duration="71.10" routeLength="994.90" waitingTime="0.00" waitingCount="0" stopTime="0.00" timeLoss="11.73" rerouteNo="0" devices="tripinfo_L2-AV-7 emissions_L2-AV-7 ssm_L2-AV-7 toc_L2-AV-7 driverstateL2-AV-7" vType="L2-AV-8" speedFactor="1.01" vaporized="">
        <emissions CO_abs="1416.376117" CO2_abs="116362.077724" HC_abs="8.365737" PMx_abs="1.745898" NOx_abs="43.848832" fuel_abs="50.019260" electricity_abs="0"/>
    </tripinfo>
    <tripinfo id="L2-CV-7" depart="183.00" departLane="bottom-approaching_0" departPos="5.10" departSpeed="0.00" departDelay="0.00" arrival="258.90" arrivalLane="top-exit_0" arrivalPos="486.40" arrivalSpeed="14.25" duration="75.90" routeLength="994.90" waitingTime="0.00" waitingCount="0" stopTime="0.00" timeLoss="5.98" rerouteNo="0" devices="tripinfo_L2-CV-7 emissions_L2-CV-7 ssm_L2-CV-7 toc_L2-CV-7 driverstateL2-CV-7" vType="L2-CV-58" speedFactor="0.85" vaporized="">
        <emissions CO_abs="1189.457584" CO2_abs="204630.795688" HC_abs="8.025616" PMx_abs="1.770143" NOx_abs="67.728397" fuel_abs="87.963216" electricity_abs="0"/>
    </tripinfo>
    <tripinfo id="L0-HDV-18" depart="204.80" departLane="top-approaching_0" departPos="5.10" departSpeed="0.00" departDelay="1.10" arrival="264.40" arrivalLane="right-exit_1" arrivalPos="486.40" arrivalSpeed="21.17" duration="59.60" routeLength="992.21" waitingTime="0.00" waitingCount="0" stopTime="0.00" timeLoss="11.93" rerouteNo="0" devices="tripinfo_L0-HDV-18 emissions_L0-HDV-18 ssm_L0-HDV-18" vType="L0-HDV-95" speedFactor="1.27" vaporized="">
        <emissions CO_abs="2698.821126" CO2_abs="222846.458311" HC_abs="17.563935" PMx_abs="3.956325" NOx_abs="86.971273" fuel_abs="95.791941" electricity_abs="0"/>
    </tripinfo>
    <tripinfo id="L0-HDV-5" depart="143.30" departLane="top-approaching_0" departPos="5.10" departSpeed="0.00" departDelay="0.05" arrival="264.70" arrivalLane="left-exit_0" arrivalPos="810.00" arrivalSpeed="18.81" duration="121.40" routeLength="1379.53" waitingTime="23.70" waitingCount="2" stopTime="0.00" timeLoss="47.45" rerouteNo="0" devices="tripinfo_L0-HDV-5 emissions_L0-HDV-5 ssm_L0-HDV-5" vType="L0-HDV-88@L0-HDV-5" speedFactor="1.13" vaporized="">
        <emissions CO_abs="7959.102082" CO2_abs="351183.956525" HC_abs="44.327570" PMx_abs="6.599755" NOx_abs="142.157383" fuel_abs="150.960917" electricity_abs="0"/>
    </tripinfo>
    <tripinfo id="L2-CV-2" depart="141.50" departLane="bottom-approaching_0" departPos="5.10" departSpeed="0.00" departDelay="3.50" arrival="275.60" arrivalLane="left-exit_0" arrivalPos="810.00" arrivalSpeed="18.14" duration="134.10" routeLength="1392.31" waitingTime="34.70" waitingCount="2" stopTime="0.00" timeLoss="56.47" rerouteNo="0" devices="tripinfo_L2-CV-2 emissions_L2-CV-2 ssm_L2-CV-2 toc_L2-CV-2 driverstateL2-CV-2" vType="L2-CV-14@L2-CV-2" speedFactor="1.09" vaporized="">
        <emissions CO_abs="9344.299382" CO2_abs="419992.445028" HC_abs="49.140313" PMx_abs="7.006354" NOx_abs="161.286405" fuel_abs="180.540084" electricity_abs="0"/>
    </tripinfo>
    <tripinfo id="L0-HDV-7" depart="152.60" departLane="left-long-approaching_0" departPos="5.10" departSpeed="0.00" departDelay="0.05" arrival="286.00" arrivalLane="right-exit_0" arrivalPos="486.40" arrivalSpeed="18.31" duration="133.40" routeLength="1395.23" waitingTime="45.00" waitingCount="1" stopTime="0.00" timeLoss="57.20" rerouteNo="0" devices="tripinfo_L0-HDV-7 emissions_L0-HDV-7 ssm_L0-HDV-7" vType="L0-HDV-Straight-24" speedFactor="1.10" vaporized="">
        <emissions CO_abs="10056.318037" CO2_abs="357607.274729" HC_abs="53.073633" PMx_abs="6.795353" NOx_abs="144.751616" fuel_abs="153.723497" electricity_abs="0"/>
    </tripinfo>
    <tripinfo id="L0-HDV-11" depart="171.20" departLane="top-approaching_0" departPos="5.10" departSpeed="0.00" departDelay="0.05" arrival="286.70" arrivalLane="left-long-approaching_2" arrivalPos="810.00" arrivalSpeed="11.41" duration="115.50" routeLength="1379.53" waitingTime="54.00" waitingCount="1" stopTime="0.00" timeLoss="64.50" rerouteNo="0" devices="tripinfo_L0-HDV-11 emissions_L0-HDV-11 ssm_L0-HDV-11" vType="L0-HDV-39@L0-HDV-11" speedFactor="0.69" vaporized="">
        <emissions CO_abs="11257.763379" CO2_abs="268872.044373" HC_abs="57.511466" PMx_abs="5.527305" NOx_abs="115.325545" fuel_abs="115.581460" electricity_abs="0"/>
    </tripinfo>
    <tripinfo id="L2-CV-1" depart="129.00" departLane="left-long-approaching_0" departPos="5.10" departSpeed="0.00" departDelay="0.00" arrival="287.90" arrivalLane="bottom-exit_0" arrivalPos="486.40" arrivalSpeed="20.01" duration="158.90" routeLength="1379.53" waitingTime="66.90" waitingCount="1" stopTime="0.00" timeLoss="89.08" rerouteNo="0" devices="tripinfo_L2-CV-1 emissions_L2-CV-1 ssm_L2-CV-1 toc_L2-CV-1 driverstateL2-CV-1" vType="L2-CV-Right-0" speedFactor="1.20" vaporized="">
        <emissions CO_abs="14686.169053" CO2_abs="520604.607800" HC_abs="76.990613" PMx_abs="9.628168" NOx_abs="206.275121" fuel_abs="223.791280" electricity_abs="0"/>
    </tripinfo>
    <tripinfo id="L2-CV-11" depart="219.00" departLane="right-approaching_0" departPos="5.10" departSpeed="0.00" departDelay="0.00" arrival="291.60" arrivalLane="top-exit_0" arrivalPos="486.40" arrivalSpeed="16.60" duration="72.60" routeLength="979.43" waitingTime="0.10" waitingCount="1" stopTime="0.00" timeLoss="12.54" rerouteNo="0" devices="tripinfo_L2-CV-11 emissions_L2-CV-11 ssm_L2-CV-11 toc_L2-CV-11 driverstateL2-CV-11" vType="L2-CV-88" speedFactor="1.00" vaporized="">
        <emissions CO_abs="2362.567008" CO2_abs="236146.752997" HC_abs="13.832796" PMx_abs="3.000981" NOx_abs="84.442965" fuel_abs="101.510111" electricity_abs="0"/>
    </tripinfo>
    <tripinfo id="L2-AV-1" depart="132.90" departLane="left-long-approaching_0" departPos="5.10" departSpeed="0.00" departDelay="3.90" arrival="292.80" arrivalLane="bottom-exit_0" arrivalPos="486.40" arrivalSpeed="16.59" duration="159.90" routeLength="1379.53" waitingTime="0.00" waitingCount="0" stopTime="0.00" timeLoss="75.84" rerouteNo="0" devices="tripinfo_L2-AV-1 emissions_L2-AV-1 ssm_L2-AV-1 toc_L2-AV-1 driverstateL2-AV-1" vType="L2-AV-Right-56" speedFactor="1.00" vaporized="">
        <emissions CO_abs="3039.435703" CO2_abs="305751.345400" HC_abs="17.145771" PMx_abs="3.756129" NOx_abs="107.519757" fuel_abs="131.430516" electricity_abs="0"/>
    </tripinfo>
    <tripinfo id="L2-AV-11" depart="223.00" departLane="right-approaching_0" departPos="5.10" departSpeed="0.00" departDelay="4.00" arrival="293.50" arrivalLane="top-exit_0" arrivalPos="486.40" arrivalSpeed="19.13" duration="70.50" routeLength="979.43" waitingTime="0.10" waitingCount="1" stopTime="0.00" timeLoss="18.40" rerouteNo="0" devices="tripinfo_L2-AV-11 emissions_L2-AV-11 ssm_L2-AV-11 toc_L2-AV-11 driverstateL2-AV-11" vType="L2-AV-79" speedFactor="1.15" vaporized="">
        <emissions CO_abs="2821.944484" CO2_abs="193621.906493" HC_abs="17.302648" PMx_abs="3.291572" NOx_abs="76.808334" fuel_abs="83.229979" electricity_abs="0"/>
    </tripinfo>
    <tripinfo id="L4-AV-3" depart="174.00" departLane="left-long-approaching_0" departPos="5.10" departSpeed="0.00" departDelay="0.00" arrival="295.90" arrivalLane="top-exit_1" arrivalPos="486.40" arrivalSpeed="18.87" duration="121.90" routeLength="1392.31" waitingTime="21.80" waitingCount="2" stopTime="0.00" timeLoss="47.20" rerouteNo="0" devices="tripinfo_L4-AV-3 emissions_L4-AV-3 ssm_L4-AV-3 toc_L4-AV-3 driverstateL4-AV-3" vType="L4-AV-Left-7" speedFactor="1.13" vaporized="">
        <emissions CO_abs="7584.629143" CO2_abs="383487.911145" HC_abs="41.506111" PMx_abs="6.546170" NOx_abs="149.297241" fuel_abs="164.847083" electricity_abs="0"/>
    </tripinfo>
    <tripinfo id="L0-HDV-19" depart="208.40" departLane="right-approaching_0" departPos="5.10" departSpeed="0.00" departDelay="0.05" arrival="298.20" arrivalLane="bottom-exit_1" arrivalPos="486.40" arrivalSpeed="19.26" duration="89.80" routeLength="992.21" waitingTime="16.90" waitingCount="2" stopTime="0.00" timeLoss="37.67" rerouteNo="0" devices="tripinfo_L0-HDV-19 emissions_L0-HDV-19 ssm_L0-HDV-19" vType="L0-HDV-32" speedFactor="1.16" vaporized="">
        <emissions CO_abs="7095.037162" CO2_abs="320391.683265" HC_abs="39.868468" PMx_abs="6.318188" NOx_abs="132.700605" fuel_abs="137.723781" electricity_abs="0"/>
    </tripinfo>
    <tripinfo id="L4-AV-4" depart="192.00" departLane="left-long-approaching_0" departPos="5.10" departSpeed="0.00" departDelay="0.00" arrival="298.30" arrivalLane="top-exit_1" arrivalPos="486.40" arrivalSpeed="19.65" duration="106.30" routeLength="1392.31" waitingTime="0.00" waitingCount="0" stopTime="0.00" timeLoss="34.56" rerouteNo="0" devices="tripinfo_L4-AV-4 emissions_L4-AV-4 ssm_L4-AV-4 toc_L4-AV-4 driverstateL4-AV-4" vType="L4-AV-Left-21" speedFactor="1.18" vaporized="">
        <emissions CO_abs="3706.031494" CO2_abs="275320.381744" HC_abs="21.784531" PMx_abs="4.632976" NOx_abs="105.407583" fuel_abs="118.348640" electricity_abs="0"/>
    </tripinfo>
    <tripinfo id="L0-HDV-17" depart="199.10" departLane="left-long-approaching_0" departPos="5.10" departSpeed="0.00" departDelay="0.05" arrival="300.90" arrivalLane="bottom-exit_0" arrivalPos="486.40" arrivalSpeed="14.88" duration="101.80" routeLength="1379.53" waitingTime="0.00" waitingCount="0" stopTime="0.00" timeLoss="8.34" rerouteNo="0" devices="tripinfo_L0-HDV-17 emissions_L0-HDV-17 ssm_L0-HDV-17" vType="L0-HDV-40" speedFactor="0.90" vaporized="">
        <emissions CO_abs="2443.077761" CO2_abs="234729.913579" HC_abs="16.343994" PMx_abs="3.459615" NOx_abs="89.096000" fuel_abs="100.900609" electricity_abs="0"/>
    </tripinfo>
    <tripinfo id="L2-CV-10" depart="214.30" departLane="left-long-approaching_0" departPos="5.10" departSpeed="0.00" departDelay="4.30" arrival="305.20" arrivalLane="right-exit_0" arrivalPos="486.40" arrivalSpeed="16.72" duration="90.90" routeLength="1395.23" waitingTime="0.00" waitingCount="0" stopTime="0.00" timeLoss="7.38" rerouteNo="0" devices="tripinfo_L2-CV-10 emissions_L2-CV-10 ssm_L2-CV-10 toc_L2-CV-10 driverstateL2-CV-10" vType="L2-CV-64@L2-CV-10" speedFactor="1.00" vaporized="">
        <emissions CO_abs="1291.872363" CO2_abs="270662.003603" HC_abs="7.861228" PMx_abs="2.622660" NOx_abs="88.170812" fuel_abs="116.346946" electricity_abs="0"/>
    </tripinfo>
    <tripinfo id="L2-AV-10" depart="217.30" departLane="left-long-approaching_0" departPos="5.10" departSpeed="0.00" departDelay="7.30" arrival="308.50" arrivalLane="right-exit_0" arrivalPos="486.40" arrivalSpeed="16.95" duration="91.20" routeLength="1395.23" waitingTime="0.00" waitingCount="0" stopTime="0.00" timeLoss="8.77" rerouteNo="0" devices="tripinfo_L2-AV-10 emissions_L2-AV-10 ssm_L2-AV-10 toc_L2-AV-10 driverstateL2-AV-10" vType="L2-AV-0" speedFactor="1.02" vaporized="">
        <emissions CO_abs="1555.082676" CO2_abs="250180.383440" HC_abs="9.194751" PMx_abs="2.636659" NOx_abs="83.167523" fuel_abs="107.542706" electricity_abs="0"/>
    </tripinfo>
    <tripinfo id="L4-AV-5" depart="210.00" departLane="left-long-approaching_0" departPos="5.10" departSpeed="0.00" departDelay="0.00" arrival="321.70" arrivalLane="top-exit_0" arrivalPos="486.40" arrivalSpeed="16.76" duration="111.70" routeLength="1392.31" waitingTime="2.00" waitingCount="3" stopTime="0.00" timeLoss="27.66" rerouteNo="0" devices="tripinfo_L4-AV-5 emissions_L4-AV-5 ssm_L4-AV-5 toc_L4-AV-5 driverstateL4-AV-5" vType="L4-AV-Left-38" speedFactor="1.01" vaporized="">
        <emissions CO_abs="4027.376962" CO2_abs="284889.326631" HC_abs="22.779934" PMx_abs="3.994299" NOx_abs="105.654072" fuel_abs="122.463038" electricity_abs="0"/>
    </tripinfo>
    <tripinfo id="L2-AV-2" depart="145.00" departLane="bottom-approaching_0" departPos="5.10" departSpeed="0.00" departDelay="7.00" arrival="341.00" arrivalLane="left-exit_0" arrivalPos="810.00" arrivalSpeed="17.60" duration="196.00" routeLength="1392.31" waitingTime="76.20" waitingCount="5" stopTime="0.00" timeLoss="115.95" rerouteNo="0" devices="tripinfo_L2-AV-2 emissions_L2-AV-2 ssm_L2-AV-2 toc_L2-AV-2 driverstateL2-AV-2" vType="L2-AV-19@L2-AV-2" speedFactor="1.06" vaporized="">
        <emissions CO_abs="15063.313727" CO2_abs="507077.843726" HC_abs="77.114922" PMx_abs="9.188263" NOx_abs="201.816639" fuel_abs="217.977039" electricity_abs="0"/>
    </tripinfo>
    <tripinfo id="L4-CV-6" depart="228.00" departLane="bottom-approaching_0" departPos="5.10" departSpeed="0.00" departDelay="0.00" arrival="349.10" arrivalLane="top-exit_0" arrivalPos="486.40" arrivalSpeed="16.97" duration="121.10" routeLength="994.90" waitingTime="46.50" waitingCount="1" stopTime="0.00" timeLoss="62.42" rerouteNo="0" devices="tripinfo_L4-CV-6 emissions_L4-CV-6 ssm_L4-CV-6 toc_L4-CV-6 driverstateL4-CV-6" vType="L4-CV-59" speedFactor="1.02" vaporized="">
        <emissions CO_abs="10479.264628" CO2_abs="373855.776487" HC_abs="53.843029" PMx_abs="6.498681" NOx_abs="147.434055" fuel_abs="160.708814" electricity_abs="0"/>
    </tripinfo>
    <tripinfo id="L0-HDV-30" depart="259.50" departLane="bottom-approaching_0" departPos="5.10" departSpeed="0.00" departDelay="0.00" arrival="349.10" arrivalLane="right-exit_0" arrivalPos="486.40" arrivalSpeed="18.64" duration="89.60" routeLength="979.43" waitingTime="14.10" waitingCount="1" stopTime="0.00" timeLoss="36.20" rerouteNo="0" devices="tripinfo_L0-HDV-30 emissions_L0-HDV-30 ssm_L0-HDV-30" vType="L0-HDV-38" speedFactor="1.12" vaporized="">
        <emissions CO_abs="5921.006243" CO2_abs="278627.005011" HC_abs="33.290043" PMx_abs="4.950112" NOx_abs="111.446021" fuel_abs="119.771424" electricity_abs="0"/>
    </tripinfo>
    <tripinfo id="L2-CV-9" depart="201.00" departLane="top-approaching_0" departPos="5.10" departSpeed="0.00" departDelay="0.00" arrival="349.70" arrivalLane="bottom-exit_0" arrivalPos="486.40" arrivalSpeed="16.95" duration="148.70" routeLength="994.90" waitingTime="70.90" waitingCount="1" stopTime="0.00" timeLoss="89.94" rerouteNo="0" devices="tripinfo_L2-CV-9 emissions_L2-CV-9 ssm_L2-CV-9 toc_L2-CV-9 driverstateL2-CV-9" vType="L2-CV-59" speedFactor="1.02" vaporized="">
        <emissions CO_abs="14538.980445" CO2_abs="434832.311839" HC_abs="74.219581" PMx_abs="8.092090" NOx_abs="176.199775" fuel_abs="186.921939" electricity_abs="0"/>
    </tripinfo>
    <tripinfo id="L2-AV-9" depart="204.70" departLane="top-approaching_0" departPos="5.10" departSpeed="0.00" departDelay="3.70" arrival="350.90" arrivalLane="bottom-exit_0" arrivalPos="486.40" arrivalSpeed="17.24" duration="146.20" routeLength="994.90" waitingTime="70.90" waitingCount="1" stopTime="0.00" timeLoss="88.43" rerouteNo="0" devices="tripinfo_L2-AV-9 emissions_L2-AV-9 ssm_L2-AV-9 toc_L2-AV-9 driverstateL2-AV-9" vType="L2-AV-74" speedFactor="1.03" vaporized="">
        <emissions CO_abs="14467.754748" CO2_abs="387411.492158" HC_abs="74.287846" PMx_abs="7.883100" NOx_abs="163.092615" fuel_abs="166.537406" electricity_abs="0"/>
    </tripinfo>
    <tripinfo id="L2-CV-12" depart="229.30" departLane="top-approaching_0" departPos="5.10" departSpeed="0.00" departDelay="1.30" arrival="351.40" arrivalLane="bottom-exit_1" arrivalPos="486.40" arrivalSpeed="19.05" duration="122.10" routeLength="994.90" waitingTime="45.40" waitingCount="2" stopTime="0.00" timeLoss="69.87" rerouteNo="0" devices="tripinfo_L2-CV-12 emissions_L2-CV-12 ssm_L2-CV-12 toc_L2-CV-12 driverstateL2-CV-12" vType="L2-CV-34" speedFactor="1.14" vaporized="">
        <emissions CO_abs="9354.811491" CO2_abs="354035.444222" HC_abs="49.656948" PMx_abs="6.520436" NOx_abs="141.712267" fuel_abs="152.187889" electricity_abs="0"/>
    </tripinfo>
    <tripinfo id="L4-AV-8" depart="267.80" departLane="bottom-approaching_0" departPos="5.10" departSpeed="0.00" departDelay="3.80" arrival="353.90" arrivalLane="right-exit_0" arrivalPos="486.40" arrivalSpeed="17.00" duration="86.10" routeLength="979.43" waitingTime="0.00" waitingCount="0" stopTime="0.00" timeLoss="27.52" rerouteNo="0" devices="tripinfo_L4-AV-8 emissions_L4-AV-8 ssm_L4-AV-8 toc_L4-AV-8 driverstateL4-AV-8" vType="L4-AV-30" speedFactor="1.02" vaporized="">
        <emissions CO_abs="3118.107186" CO2_abs="236267.179759" HC_abs="17.778029" PMx_abs="3.389471" NOx_abs="87.968952" fuel_abs="101.561919" electricity_abs="0"/>
    </tripinfo>
    <tripinfo id="L2-AV-12" depart="232.40" departLane="top-approaching_0" departPos="5.10" departSpeed="0.00" departDelay="4.40" arrival="355.40" arrivalLane="bottom-exit_0" arrivalPos="486.40" arrivalSpeed="16.27" duration="123.00" routeLength="994.90" waitingTime="0.00" waitingCount="0" stopTime="0.00" timeLoss="61.75" rerouteNo="0" devices="tripinfo_L2-AV-12 emissions_L2-AV-12 ssm_L2-AV-12 toc_L2-AV-12 driverstateL2-AV-12" vType="L2-AV-98" speedFactor="0.98" vaporized="">
        <emissions CO_abs="2945.855546" CO2_abs="242356.206714" HC_abs="16.455802" PMx_abs="3.264825" NOx_abs="88.177686" fuel_abs="104.179420" electricity_abs="0"/>
    </tripinfo>
    <tripinfo id="L0-HDV-36" depart="287.40" departLane="bottom-approaching_0" departPos="5.10" departSpeed="0.00" departDelay="0.00" arrival="355.50" arrivalLane="right-exit_0" arrivalPos="486.40" arrivalSpeed="16.57" duration="68.10" routeLength="979.43" waitingTime="0.00" waitingCount="0" stopTime="0.00" timeLoss="8.06" rerouteNo="0" devices="tripinfo_L0-HDV-36 emissions_L0-HDV-36 ssm_L0-HDV-36" vType="L0-HDV-11" speedFactor="0.99" vaporized="">
        <emissions CO_abs="1780.396519" CO2_abs="171228.398604" HC_abs="11.453421" PMx_abs="2.649786" NOx_abs="65.200187" fuel_abs="73.603729" electricity_abs="0"/>
    </tripinfo>
    <tripinfo id="L0-HDV-24" depart="232.50" departLane="top-approaching_0" departPos="5.10" departSpeed="0.00" departDelay="0.90" arrival="360.20" arrivalLane="right-exit_0" arrivalPos="486.40" arrivalSpeed="16.62" duration="127.70" routeLength="992.21" waitingTime="46.70" waitingCount="2" stopTime="0.00" timeLoss="67.07" rerouteNo="0" devices="tripinfo_L0-HDV-24 emissions_L0-HDV-24 ssm_L0-HDV-24" vType="L0-HDV-85" speedFactor="1.00" vaporized="">