<?xml version="1.0" encoding="UTF-8"?>

<!-- generated on 04/01/21 04:52:28 by Eclipse SUMO sumo Version 1.8.0
<configuration xmlns:xsi="http://www.w3.org/2001/XMLSchema-instance" xsi:noNamespaceSchemaLocation="http://sumo.dlr.de/xsd/sumoConfiguration.xsd">

    <input>
        <net-file value="Collision\RealTMSPenetration2\../CollisionIntersection.net.xml"/>
        <route-files value="Collision\RealTMSPenetration2\../CrashedVehicleRoutes.rou.xml,Collision\RealTMSPenetration2\Route-Files/L4-CV-Route.rou.xml,Collision\RealTMSPenetration2\Route-Files/L4-AV-Route.rou.xml,Collision\RealTMSPenetration2\Route-Files/L2-CV-Route.rou.xml,Collision\RealTMSPenetration2\Route-Files/L2-AV-Route.rou.xml,Collision\RealTMSPenetration2\Route-Files/L0-HDV-Route.rou.xml"/>
        <additional-files value="Collision\RealTMSPenetration2\../Additional-Files/Collision-Detectors.add.xml,Collision\RealTMSPenetration2\../Additional-Files/Collision-TMS-Rerouters.add.xml,Collision\RealTMSPenetration2\PreparingVehicleModels/Vehicle-Models/L4-CV.add.xml,Collision\RealTMSPenetration2\PreparingVehicleModels/Vehicle-Models/L4-CV-Left.add.xml,Collision\RealTMSPenetration2\PreparingVehicleModels/Vehicle-Models/L4-CV-Right.add.xml,Collision\RealTMSPenetration2\PreparingVehicleModels/Vehicle-Models/L4-AV.add.xml,Collision\RealTMSPenetration2\PreparingVehicleModels/Vehicle-Models/L4-AV-Left.add.xml,Collision\RealTMSPenetration2\PreparingVehicleModels/Vehicle-Models/L4-AV-Right.add.xml,Collision\RealTMSPenetration2\PreparingVehicleModels/Vehicle-Models/L2-CV.add.xml,Collision\RealTMSPenetration2\PreparingVehicleModels/Vehicle-Models/L2-CV-Left.add.xml,Collision\RealTMSPenetration2\PreparingVehicleModels/Vehicle-Models/L2-CV-Right.add.xml,Collision\RealTMSPenetration2\PreparingVehicleModels/Vehicle-Models/L2-AV.add.xml,Collision\RealTMSPenetration2\PreparingVehicleModels/Vehicle-Models/L2-AV-Left.add.xml,Collision\RealTMSPenetration2\PreparingVehicleModels/Vehicle-Models/L2-AV-Right.add.xml,Collision\RealTMSPenetration2\PreparingVehicleModels/Vehicle-Models/L0-HDV.add.xml,Collision\RealTMSPenetration2\PreparingVehicleModels/Vehicle-Models/L0-HDV-Left.add.xml,Collision\RealTMSPenetration2\PreparingVehicleModels/Vehicle-Models/L0-HDV-Straight.add.xml,Collision\RealTMSPenetration2\../Additional-Files/Collision-Traffic-lights.add.xml,Collision\RealTMSPenetration2\../Additional-Files/Collision-Traffic-Signs.add.xml"/>
    </input>

    <output>
        <tripinfo-output value="Collision\RealTMSPenetration2\Output-Files\TripInfo.xml"/>
    </output>

    <time>
        <begin value="0"/>
        <step-length value="0.1"/>
    </time>

    <processing>
        <ignore-route-errors value="true"/>
        <waiting-time-memory value="300"/>
        <default.action-step-length value="0.1"/>
    </processing>

    <report>
        <no-warnings value="true"/>
    </report>

    <emissions>
        <device.emissions.probability value="1"/>
    </emissions>

    <traci_server>
        <remote-port value="59547"/>
    </traci_server>

    <gui_only>
        <quit-on-end value="true"/>
        <start value="true"/>
        <tracker-interval value="0.1"/>
    </gui_only>

</configuration>
-->

<tripinfos xmlns:xsi="http://www.w3.org/2001/XMLSchema-instance" xsi:noNamespaceSchemaLocation="http://sumo.dlr.de/xsd/tripinfo_file.xsd">
    <tripinfo id="L2-CV-2" depart="132.40" departLane="right-approaching_0" departPos="5.10" departSpeed="0.00" departDelay="0.00" arrival="196.30" arrivalLane="top-exit_0" arrivalPos="486.40" arrivalSpeed="20.01" duration="63.90" routeLength="979.43" waitingTime="0.00" waitingCount="0" stopTime="0.00" timeLoss="14.03" rerouteNo="0" devices="tripinfo_L2-CV-2 emissions_L2-CV-2 ssm_L2-CV-2 toc_L2-CV-2 driverstateL2-CV-2" vType="L2-CV-0" speedFactor="1.20" vaporized="">
        <emissions CO_abs="2727.306170" CO2_abs="261048.281987" HC_abs="17.286980" PMx_abs="4.076279" NOx_abs="96.937830" fuel_abs="112.213621" electricity_abs="0"/>
    </tripinfo>
    <tripinfo id="L0-HDV-6" depart="139.30" departLane="left-long-approaching_0" departPos="5.10" departSpeed="0.00" departDelay="0.04" arrival="203.60" arrivalLane="top-exit_0" arrivalPos="486.40" arrivalSpeed="17.55" duration="64.30" routeLength="992.31" waitingTime="0.00" waitingCount="0" stopTime="0.00" timeLoss="6.94" rerouteNo="0" devices="tripinfo_L0-HDV-6 emissions_L0-HDV-6 ssm_L0-HDV-6" vType="L0-HDV-Left-78" speedFactor="1.06" vaporized="">
        <emissions CO_abs="2346.478394" CO2_abs="201881.355795" HC_abs="15.280028" PMx_abs="3.510705" NOx_abs="79.646373" fuel_abs="86.779822" electricity_abs="0"/>
    </tripinfo>
    <tripinfo id="L0-HDV-2" depart="126.50" departLane="right-approaching_0" departPos="5.10" departSpeed="0.00" departDelay="0.08" arrival="207.20" arrivalLane="left-exit_0" arrivalPos="410.00" arrivalSpeed="17.20" duration="80.70" routeLength="995.12" waitingTime="6.60" waitingCount="1" stopTime="0.00" timeLoss="23.26" rerouteNo="0" devices="tripinfo_L0-HDV-2 emissions_L0-HDV-2 ssm_L0-HDV-2" vType="L0-HDV-32@L0-HDV-2" speedFactor="1.04" vaporized="">
        <emissions CO_abs="4627.182434" CO2_abs="260430.056323" HC_abs="27.144850" PMx_abs="4.815461" NOx_abs="105.984749" fuel_abs="111.948123" electricity_abs="0"/>
    </tripinfo>
    <tripinfo id="L2-CV-5" depart="151.00" departLane="top-approaching_0" departPos="5.10" departSpeed="0.00" departDelay="0.00" arrival="235.70" arrivalLane="bottom-exit_1" arrivalPos="486.40" arrivalSpeed="18.04" duration="84.70" routeLength="994.90" waitingTime="12.30" waitingCount="1" stopTime="0.00" timeLoss="29.59" rerouteNo="0" devices="tripinfo_L2-CV-5 emissions_L2-CV-5 ssm_L2-CV-5 toc_L2-CV-5 driverstateL2-CV-5" vType="L2-CV-48" speedFactor="1.08" vaporized="">
        <emissions CO_abs="3587.687181" CO2_abs="269614.847147" HC_abs="20.373662" PMx_abs="4.113833" NOx_abs="100.187258" fuel_abs="115.896582" electricity_abs="0"/>
    </tripinfo>
    <tripinfo id="L2-AV-1" depart="126.20" departLane="bottom-approaching_0" departPos="5.10" departSpeed="0.00" departDelay="0.00" arrival="238.20" arrivalLane="top-exit_0" arrivalPos="486.40" arrivalSpeed="16.59" duration="112.00" routeLength="994.90" waitingTime="36.50" waitingCount="1" stopTime="0.00" timeLoss="52.00" rerouteNo="0" devices="tripinfo_L2-AV-1 emissions_L2-AV-1 ssm_L2-AV-1 toc_L2-AV-1 driverstateL2-AV-1" vType="L2-AV-56" speedFactor="1.00" vaporized="">
        <emissions CO_abs="8705.570114" CO2_abs="341721.290810" HC_abs="44.947025" PMx_abs="5.684489" NOx_abs="132.873891" fuel_abs="146.894828" electricity_abs="0"/>
    </tripinfo>
    <tripinfo id="L2-AV-3" depart="138.60" departLane="top-approaching_0" departPos="5.10" departSpeed="0.00" departDelay="0.00" arrival="238.90" arrivalLane="bottom-exit_0" arrivalPos="486.40" arrivalSpeed="15.11" duration="100.30" routeLength="994.90" waitingTime="24.70" waitingCount="1" stopTime="0.00" timeLoss="34.36" rerouteNo="0" devices="tripinfo_L2-AV-3 emissions_L2-AV-3 ssm_L2-AV-3 toc_L2-AV-3 driverstateL2-AV-3" vType="L2-AV-3" speedFactor="0.91" vaporized="">
        <emissions CO_abs="6127.054265" CO2_abs="297756.120817" HC_abs="32.154681" PMx_abs="4.352601" NOx_abs="111.793585" fuel_abs="127.995267" electricity_abs="0"/>
    </tripinfo>
    <tripinfo id="L2-CV-4" depart="144.80" departLane="top-approaching_0" departPos="5.10" departSpeed="0.00" departDelay="0.00" arrival="240.50" arrivalLane="right-exit_1" arrivalPos="486.40" arrivalSpeed="17.06" duration="95.70" routeLength="992.21" waitingTime="16.80" waitingCount="1" stopTime="0.00" timeLoss="36.59" rerouteNo="0" devices="tripinfo_L2-CV-4 emissions_L2-CV-4 ssm_L2-CV-4 toc_L2-CV-4 driverstateL2-CV-4" vType="L2-CV-0" speedFactor="1.02" vaporized="">
        <emissions CO_abs="6019.267910" CO2_abs="303817.614425" HC_abs="32.182142" PMx_abs="4.714711" NOx_abs="115.513641" fuel_abs="130.600378" electricity_abs="0"/>
    </tripinfo>
    <tripinfo id="L4-AV-2" depart="144.00" departLane="bottom-approaching_0" departPos="5.10" departSpeed="0.00" departDelay="0.00" arrival="241.30" arrivalLane="right-exit_0" arrivalPos="486.40" arrivalSpeed="13.99" duration="97.30" routeLength="979.43" waitingTime="15.50" waitingCount="1" stopTime="0.00" timeLoss="26.10" rerouteNo="0" devices="tripinfo_L4-AV-2 emissions_L4-AV-2 ssm_L4-AV-2 toc_L4-AV-2 driverstateL4-AV-2" vType="L4-AV-74" speedFactor="0.84" vaporized="">
        <emissions CO_abs="4676.552455" CO2_abs="269465.036212" HC_abs="25.721289" PMx_abs="3.524465" NOx_abs="99.075049" fuel_abs="115.833839" electricity_abs="0"/>
    </tripinfo>
    <tripinfo id="L0-HDV-11" depart="155.40" departLane="top-approaching_0" departPos="5.10" departSpeed="0.00" departDelay="0.09" arrival="246.30" arrivalLane="right-exit_0" arrivalPos="486.40" arrivalSpeed="14.57" duration="90.90" routeLength="992.21" waitingTime="8.70" waitingCount="1" stopTime="0.00" timeLoss="21.83" rerouteNo="0" devices="tripinfo_L0-HDV-11 emissions_L0-HDV-11 ssm_L0-HDV-11" vType="L0-HDV-55" speedFactor="0.88" vaporized="">
        <emissions CO_abs="4163.573629" CO2_abs="215560.375671" HC_abs="23.809023" PMx_abs="3.554170" NOx_abs="85.175049" fuel_abs="92.661405" electricity_abs="0"/>
    </tripinfo>
    <tripinfo id="L0-HDV-19" depart="181.00" departLane="top-approaching_0" departPos="5.10" departSpeed="0.00" departDelay="0.01" arrival="251.90" arrivalLane="right-exit_0" arrivalPos="486.40" arrivalSpeed="16.95" duration="70.90" routeLength="992.21" waitingTime="0.00" waitingCount="0" stopTime="0.00" timeLoss="11.33" rerouteNo="0" devices="tripinfo_L0-HDV-19 emissions_L0-HDV-19 ssm_L0-HDV-19" vType="L0-HDV-8" speedFactor="1.02" vaporized="">
        <emissions CO_abs="2356.495386" CO2_abs="187421.453714" HC_abs="14.233217" PMx_abs="2.870196" NOx_abs="71.427777" fuel_abs="80.564770" electricity_abs="0"/>
    </tripinfo>
    <tripinfo id="L2-CV-6" depart="157.20" departLane="left-long-approaching_0" departPos="5.10" departSpeed="0.00" departDelay="0.00" arrival="274.50" arrivalLane="bottom-exit_0" arrivalPos="486.40" arrivalSpeed="18.66" duration="117.30" routeLength="979.53" waitingTime="44.60" waitingCount="1" stopTime="0.00" timeLoss="63.89" rerouteNo="0" devices="tripinfo_L2-CV-6 emissions_L2-CV-6 ssm_L2-CV-6 toc_L2-CV-6 driverstateL2-CV-6" vType="L2-CV-Right-85" speedFactor="1.12" vaporized="">
        <emissions CO_abs="10678.697160" CO2_abs="384783.251449" HC_abs="55.738173" PMx_abs="7.002019" NOx_abs="153.446962" fuel_abs="165.405803" electricity_abs="0"/>
    </tripinfo>
    <tripinfo id="L2-AV-10" depart="182.00" departLane="right-approaching_0" departPos="5.10" departSpeed="0.00" departDelay="0.00" arrival="277.10" arrivalLane="top-exit_1" arrivalPos="486.40" arrivalSpeed="16.90" duration="95.10" routeLength="979.43" waitingTime="21.30" waitingCount="1" stopTime="0.00" timeLoss="36.20" rerouteNo="0" devices="tripinfo_L2-AV-10 emissions_L2-AV-10 ssm_L2-AV-10 toc_L2-AV-10 driverstateL2-AV-10" vType="L2-AV-24" speedFactor="1.01" vaporized="">
        <emissions CO_abs="5954.900415" CO2_abs="246083.274101" HC_abs="31.477347" PMx_abs="4.250155" NOx_abs="97.354176" fuel_abs="105.782688" electricity_abs="0"/>
    </tripinfo>
    <tripinfo id="L0-HDV-4" depart="132.90" departLane="left-long-approaching_0" departPos="5.10" departSpeed="0.00" departDelay="0.06" arrival="277.70" arrivalLane="right-exit_0" arrivalPos="486.40" arrivalSpeed="14.51" duration="144.80" routeLength="995.23" waitingTime="67.90" waitingCount="1" stopTime="0.00" timeLoss="76.46" rerouteNo="0" devices="tripinfo_L0-HDV-4 emissions_L0-HDV-4 ssm_L0-HDV-4" vType="L0-HDV-Straight-75" speedFactor="0.87" vaporized="">
        <emissions CO_abs="13739.407808" CO2_abs="382163.134372" HC_abs="71.425694" PMx_abs="7.821239" NOx_abs="162.079588" fuel_abs="164.280771" electricity_abs="0"/>
    </tripinfo>
    <tripinfo id="L2-AV-9" depart="177.00" departLane="right-approaching_0" departPos="5.10" departSpeed="0.00" departDelay="1.20" arrival="278.60" arrivalLane="top-exit_0" arrivalPos="486.40" arrivalSpeed="14.90" duration="101.60" routeLength="979.43" waitingTime="20.30" waitingCount="1" stopTime="0.00" timeLoss="34.76" rerouteNo="0" devices="tripinfo_L2-AV-9 emissions_L2-AV-9 ssm_L2-AV-9 toc_L2-AV-9 driverstateL2-AV-9" vType="L2-AV-15" speedFactor="0.89" vaporized="">
        <emissions CO_abs="5888.463105" CO2_abs="288414.592216" HC_abs="31.208578" PMx_abs="4.146216" NOx_abs="108.331821" fuel_abs="123.979732" electricity_abs="0"/>
    </tripinfo>
    <tripinfo id="L0-HDV-27" depart="207.00" departLane="right-approaching_0" departPos="5.10" departSpeed="0.00" departDelay="0.33" arrival="279.10" arrivalLane="top-exit_1" arrivalPos="486.40" arrivalSpeed="17.06" duration="72.10" routeLength="979.43" waitingTime="0.00" waitingCount="0" stopTime="0.00" timeLoss="14.21" rerouteNo="0" devices="tripinfo_L0-HDV-27 emissions_L0-HDV-27 ssm_L0-HDV-27" vType="L0-HDV-59" speedFactor="1.03" vaporized="">
        <emissions CO_abs="3101.566898" CO2_abs="223673.171310" HC_abs="19.246410" PMx_abs="3.934256" NOx_abs="89.320574" fuel_abs="96.147443" electricity_abs="0"/>
    </tripinfo>
    <tripinfo id="L0-HDV-13" depart="164.10" departLane="left-long-approaching_0" departPos="5.10" departSpeed="0.00" departDelay="2.37" arrival="279.40" arrivalLane="right-exit_1" arrivalPos="486.40" arrivalSpeed="16.48" duration="115.30" routeLength="995.23" waitingTime="38.90" waitingCount="1" stopTime="0.00" timeLoss="54.89" rerouteNo="0" devices="tripinfo_L0-HDV-13 emissions_L0-HDV-13 ssm_L0-HDV-13" vType="L0-HDV-Straight-6" speedFactor="0.99" vaporized="">
        <emissions CO_abs="8929.156123" CO2_abs="294739.616573" HC_abs="46.747457" PMx_abs="5.502321" NOx_abs="120.401490" fuel_abs="126.699324" electricity_abs="0"/>
    </tripinfo>
    <tripinfo id="L0-HDV-10" depart="152.10" departLane="left-long-approaching_0" departPos="5.10" departSpeed="0.00" departDelay="0.00" arrival="280.00" arrivalLane="right-exit_0" arrivalPos="486.40" arrivalSpeed="14.38" duration="127.90" routeLength="995.23" waitingTime="47.10" waitingCount="1" stopTime="0.00" timeLoss="59.21" rerouteNo="0" devices="tripinfo_L0-HDV-10 emissions_L0-HDV-10 ssm_L0-HDV-10" vType="L0-HDV-Straight-54" speedFactor="0.87" vaporized="">
        <emissions CO_abs="11950.344988" CO2_abs="401845.700952" HC_abs="63.916128" PMx_abs="8.343875" NOx_abs="171.946847" fuel_abs="172.739351" electricity_abs="0"/>
    </tripinfo>
    <tripinfo id="L2-AV-11" depart="188.20" departLane="left-long-approaching_0" departPos="5.10" departSpeed="0.00" departDelay="0.00" arrival="281.30" arrivalLane="right-exit_1" arrivalPos="486.40" arrivalSpeed="17.75" duration="93.10" routeLength="995.23" waitingTime="0.00" waitingCount="0" stopTime="0.00" timeLoss="36.92" rerouteNo="0" devices="tripinfo_L2-AV-11 emissions_L2-AV-11 ssm_L2-AV-11 toc_L2-AV-11 driverstateL2-AV-11" vType="L2-AV-73" speedFactor="1.06" vaporized="">
        <emissions CO_abs="2774.910220" CO2_abs="221245.149062" HC_abs="16.444715" PMx_abs="3.377774" NOx_abs="83.615985" fuel_abs="95.104198" electricity_abs="0"/>
    </tripinfo>
    <tripinfo id="L0-HDV-12" depart="161.00" departLane="left-long-approaching_0" departPos="5.10" departSpeed="0.00" departDelay="2.48" arrival="281.80" arrivalLane="bottom-exit_0" arrivalPos="486.40" arrivalSpeed="15.01" duration="120.80" routeLength="979.53" waitingTime="36.90" waitingCount="1" stopTime="0.00" timeLoss="54.74" rerouteNo="0" devices="tripinfo_L0-HDV-12 emissions_L0-HDV-12 ssm_L0-HDV-12" vType="L0-HDV-92" speedFactor="0.90" vaporized="">
        <emissions CO_abs="9101.437881" CO2_abs="300194.855108" HC_abs="48.315533" PMx_abs="5.632193" NOx_abs="123.759183" fuel_abs="129.044353" electricity_abs="0"/>
    </tripinfo>
    <tripinfo id="L4-CV-4" depart="168.00" departLane="left-long-approaching_0" departPos="5.10" departSpeed="0.00" departDelay="0.00" arrival="282.00" arrivalLane="right-exit_0" arrivalPos="486.40" arrivalSpeed="16.52" duration="114.00" routeLength="995.23" waitingTime="24.00" waitingCount="1" stopTime="0.00" timeLoss="53.90" rerouteNo="0" devices="tripinfo_L4-CV-4 emissions_L4-CV-4 ssm_L4-CV-4 toc_L4-CV-4 driverstateL4-CV-4" vType="L4-CV-12@L4-CV-4" speedFactor="0.99" vaporized="">
        <emissions CO_abs="6090.677716" CO2_abs="308230.940401" HC_abs="32.899457" PMx_abs="4.667977" NOx_abs="116.739649" fuel_abs="132.497712" electricity_abs="0"/>
    </tripinfo>
    <tripinfo id="L2-CV-9" depart="176.40" departLane="left-long-approaching_0" departPos="5.10" departSpeed="0.00" departDelay="0.60" arrival="282.00" arrivalLane="top-exit_0" arrivalPos="486.40" arrivalSpeed="16.45" duration="105.60" routeLength="997.47" waitingTime="22.40" waitingCount="2" stopTime="0.00" timeLoss="44.23" rerouteNo="0" devices="tripinfo_L2-CV-9 emissions_L2-CV-9 ssm_L2-CV-9 toc_L2-CV-9 driverstateL2-CV-9" vType="L2-CV-Left-48@L2-CV-9" speedFactor="0.99" vaporized="">
        <emissions CO_abs="5009.475477" CO2_abs="293531.346569" HC_abs="27.588493" PMx_abs="4.339335" NOx_abs="110.237988" fuel_abs="126.178354" electricity_abs="0"/>
    </tripinfo>
    <tripinfo id="L2-AV-14" depart="206.80" departLane="left-long-approaching_0" departPos="5.10" departSpeed="0.00" departDelay="0.00" arrival="284.10" arrivalLane="bottom-exit_0" arrivalPos="486.40" arrivalSpeed="18.31" duration="77.30" routeLength="979.53" waitingTime="0.00" waitingCount="0" stopTime="0.00" timeLoss="22.92" rerouteNo="0" devices="tripinfo_L2-AV-14 emissions_L2-AV-14 ssm_L2-AV-14 toc_L2-AV-14 driverstateL2-AV-14" vType="L2-AV-Right-52" speedFactor="1.10" vaporized="">
        <emissions CO_abs="3140.952170" CO2_abs="218586.963164" HC_abs="18.692192" PMx_abs="3.578512" NOx_abs="85.559200" fuel_abs="93.961497" electricity_abs="0"/>
    </tripinfo>
    <tripinfo id="L4-AV-3" depart="156.00" departLane="left-long-approaching_0" departPos="5.10" departSpeed="0.00" departDelay="0.00" arrival="284.30" arrivalLane="top-exit_0" arrivalPos="486.40" arrivalSpeed="16.76" duration="128.30" routeLength="992.31" waitingTime="45.80" waitingCount="2" stopTime="0.00" timeLoss="68.08" rerouteNo="0" devices="tripinfo_L4-AV-3 emissions_L4-AV-3 ssm_L4-AV-3 toc_L4-AV-3 driverstateL4-AV-3" vType="L4-AV-Left-38" speedFactor="1.01" vaporized="">
        <emissions CO_abs="10929.991390" CO2_abs="380212.849729" HC_abs="56.468843" PMx_abs="6.630672" NOx_abs="150.743632" fuel_abs="163.441744" electricity_abs="0"/>
    </tripinfo>
    <tripinfo id="L4-AV-4" depart="171.90" departLane="left-long-approaching_0" departPos="5.10" departSpeed="0.00" departDelay="3.90" arrival="286.20" arrivalLane="top-exit_0" arrivalPos="486.40" arrivalSpeed="16.58" duration="114.30" routeLength="992.31" waitingTime="0.00" waitingCount="0" stopTime="0.00" timeLoss="53.48" rerouteNo="0" devices="tripinfo_L4-AV-4 emissions_L4-AV-4 ssm_L4-AV-4 toc_L4-AV-4 driverstateL4-AV-4" vType="L4-AV-Left-41" speedFactor="0.99" vaporized="">
        <emissions CO_abs="3363.555640" CO2_abs="251981.726021" HC_abs="19.067483" PMx_abs="3.519533" NOx_abs="92.869017" fuel_abs="108.317185" electricity_abs="0"/>
    </tripinfo>
    <tripinfo id="L2-AV-15" depart="213.00" departLane="left-long-approaching_0" departPos="5.10" departSpeed="0.00" departDelay="0.00" arrival="286.50" arrivalLane="bottom-exit_0" arrivalPos="486.40" arrivalSpeed="18.28" duration="73.50" routeLength="979.53" waitingTime="0.00" waitingCount="0" stopTime="0.00" timeLoss="19.02" rerouteNo="0" devices="tripinfo_L2-AV-15 emissions_L2-AV-15 ssm_L2-AV-15 toc_L2-AV-15 driverstateL2-AV-15" vType="L2-AV-Right-24" speedFactor="1.10" vaporized="">
        <emissions CO_abs="2692.545266" CO2_abs="235919.328447" HC_abs="16.293422" PMx_abs="3.558682" NOx_abs="88.749544" fuel_abs="101.411871" electricity_abs="0"/>
    </tripinfo>
    <tripinfo id="L0-HDV-17" depart="174.60" departLane="right-approaching_0" departPos="5.10" departSpeed="0.00" departDelay="0.03" arrival="288.40" arrivalLane="bottom-exit_0" arrivalPos="486.40" arrivalSpeed="21.71" duration="113.80" routeLength="992.21" waitingTime="48.50" waitingCount="2" stopTime="0.00" timeLoss="67.57" rerouteNo="0" devices="tripinfo_L0-HDV-17 emissions_L0-HDV-17 ssm_L0-HDV-17" vType="L0-HDV-33" speedFactor="1.31" vaporized="">
        <emissions CO_abs="12096.512921" CO2_abs="391759.487922" HC_abs="64.438768" PMx_abs="8.527042" NOx_abs="167.558302" fuel_abs="168.403695" electricity_abs="0"/>
    </tripinfo>
    <tripinfo id="L0-HDV-16" depart="176.30" departLane="left-long-approaching_0" departPos="5.10" departSpeed="0.00" departDelay="4.94" arrival="290.30" arrivalLane="top-exit_1" arrivalPos="486.40" arrivalSpeed="15.19" duration="114.00" routeLength="992.31" waitingTime="0.00" waitingCount="0" stopTime="0.00" timeLoss="47.61" rerouteNo="0" devices="tripinfo_L0-HDV-16 emissions_L0-HDV-16 ssm_L0-HDV-16" vType="L0-HDV-Left-19" speedFactor="0.91" vaporized="">
        <emissions CO_abs="3135.247510" CO2_abs="190213.639749" HC_abs="17.862926" PMx_abs="2.951902" NOx_abs="73.600485" fuel_abs="81.765515" electricity_abs="0"/>
    </tripinfo>
    <tripinfo id="L4-CV-6" depart="193.00" departLane="left-long-approaching_0" departPos="5.10" departSpeed="0.00" departDelay="1.00" arrival="290.90" arrivalLane="top-exit_0" arrivalPos="486.40" arrivalSpeed="14.64" duration="97.90" routeLength="997.47" waitingTime="0.00" waitingCount="0" stopTime="0.00" timeLoss="28.73" rerouteNo="0" devices="tripinfo_L4-CV-6 emissions_L4-CV-6 ssm_L4-CV-6 toc_L4-CV-6 driverstateL4-CV-6" vType="L4-CV-Left-22@L4-CV-6" speedFactor="0.88" vaporized="">
        <emissions CO_abs="2874.374872" CO2_abs="249568.258931" HC_abs="17.241310" PMx_abs="3.102395" NOx_abs="90.564366" fuel_abs="107.279916" electricity_abs="0"/>
    </tripinfo>
    <tripinfo id="L2-CV-16" depart="219.20" departLane="left-long-approaching_0" departPos="5.10" departSpeed="0.00" departDelay="0.00" arrival="292.10" arrivalLane="top-exit_0" arrivalPos="486.40" arrivalSpeed="17.07" duration="72.90" routeLength="997.47" waitingTime="0.00" waitingCount="0" stopTime="0.00" timeLoss="15.35" rerouteNo="0" devices="tripinfo_L2-CV-16 emissions_L2-CV-16 ssm_L2-CV-16 toc_L2-CV-16 driverstateL2-CV-16" vType="L2-CV-Left-19@L2-CV-16" speedFactor="1.06" vaporized="">
        <emissions CO_abs="2104.370867" CO2_abs="186133.464571" HC_abs="13.052982" PMx_abs="2.900440" NOx_abs="71.005018" fuel_abs="80.010859" electricity_abs="0"/>
    </tripinfo>
    <tripinfo id="L2-AV-7" depart="163.40" departLane="right-approaching_0" departPos="5.10" departSpeed="0.00" departDelay="0.00" arrival="292.20" arrivalLane="bottom-exit_0" arrivalPos="486.40" arrivalSpeed="16.14" duration="128.80" routeLength="992.21" waitingTime="52.40" waitingCount="2" stopTime="0.00" timeLoss="66.27" rerouteNo="0" devices="tripinfo_L2-AV-7 emissions_L2-AV-7 ssm_L2-AV-7 toc_L2-AV-7 driverstateL2-AV-7" vType="L2-AV-38" speedFactor="0.97" vaporized="">
        <emissions CO_abs="11215.488753" CO2_abs="380551.974085" HC_abs="57.068759" PMx_abs="6.652257" NOx_abs="150.730735" fuel_abs="163.587635" electricity_abs="0"/>
    </tripinfo>
    <tripinfo id="L0-HDV-15" depart="172.00" departLane="left-long-approaching_0" departPos="5.10" departSpeed="0.00" departDelay="3.85" arrival="292.40" arrivalLane="top-exit_1" arrivalPos="486.40" arrivalSpeed="16.83" duration="120.40" routeLength="992.31" waitingTime="0.10" waitingCount="1" stopTime="0.00" timeLoss="71.35" rerouteNo="0" devices="tripinfo_L0-HDV-15 emissions_L0-HDV-15 ssm_L0-HDV-15" vType="L0-HDV-Left-10" speedFactor="1.23" vaporized="">
        <emissions CO_abs="5293.441259" CO2_abs="244186.474817" HC_abs="29.621677" PMx_abs="4.081217" NOx_abs="97.370901" fuel_abs="104.967065" electricity_abs="0"/>
    </tripinfo>
    <tripinfo id="L4-AV-5" depart="180.00" departLane="left-long-approaching_0" departPos="5.10" departSpeed="0.00" departDelay="0.00" arrival="293.80" arrivalLane="top-exit_1" arrivalPos="486.40" arrivalSpeed="17.00" duration="113.80" routeLength="992.31" waitingTime="0.00" waitingCount="0" stopTime="0.00" timeLoss="54.47" rerouteNo="0" devices="tripinfo_L4-AV-5 emissions_L4-AV-5 ssm_L4-AV-5 toc_L4-AV-5 driverstateL4-AV-5" vType="L4-AV-Left-30" speedFactor="1.02" vaporized="">
        <emissions CO_abs="3887.659235" CO2_abs="215315.863213" HC_abs="22.061905" PMx_abs="3.515635" NOx_abs="84.527007" fuel_abs="92.556059" electricity_abs="0"/>
    </tripinfo>
    <tripinfo id="L2-CV-12" depart="195.00" departLane="right-approaching_0" departPos="5.10" departSpeed="0.00" departDelay="0.60" arrival="296.10" arrivalLane="bottom-exit_0" arrivalPos="486.40" arrivalSpeed="17.04" duration="101.10" routeLength="992.21" waitingTime="12.30" waitingCount="2" stopTime="0.00" timeLoss="41.94" rerouteNo="0" devices="tripinfo_L2-CV-12 emissions_L2-CV-12 ssm_L2-CV-12 toc_L2-CV-12 driverstateL2-CV-12" vType="L2-CV-15" speedFactor="1.02" vaporized="">
        <emissions CO_abs="4303.169635" CO2_abs="277296.127857" HC_abs="24.139705" PMx_abs="4.086189" NOx_abs="103.557196" fuel_abs="119.199135" electricity_abs="0"/>
    </tripinfo>
    <tripinfo id="L2-AV-16" depart="222.00" departLane="left-long-approaching_0" departPos="5.10" departSpeed="0.00" departDelay="2.80" arrival="297.80" arrivalLane="top-exit_1" arrivalPos="486.40" arrivalSpeed="19.62" duration="75.80" routeLength="992.31" waitingTime="0.00" waitingCount="0" stopTime="0.00" timeLoss="24.34" rerouteNo="0" devices="tripinfo_L2-AV-16 emissions_L2-AV-16 ssm_L2-AV-16 toc_L2-AV-16 driverstateL2-AV-16" vType="L2-AV-Left-30" speedFactor="1.18" vaporized="">
        <emissions CO_abs="3188.985294" CO2_abs="264171.800542" HC_abs="19.524882" PMx_abs="4.051353" NOx_abs="99.834726" fuel_abs="113.556564" electricity_abs="0"/>
    </tripinfo>
    <tripinfo id="L0-HDV-22" depart="190.70" departLane="left-long-approaching_0" departPos="5.10" departSpeed="0.00" departDelay="0.08" arrival="298.30" arrivalLane="top-exit_0" arrivalPos="486.40" arrivalSpeed="14.76" duration="107.60" routeLength="992.31" waitingTime="0.00" waitingCount="0" stopTime="0.00" timeLoss="39.31" rerouteNo="0" devices="tripinfo_L0-HDV-22 emissions_L0-HDV-22 ssm_L0-HDV-22" vType="L0-HDV-Left-58" speedFactor="0.89" vaporized="">
        <emissions CO_abs="3716.261922" CO2_abs="199550.098503" HC_abs="21.306450" PMx_abs="3.227574" NOx_abs="78.549693" fuel_abs="85.779130" electricity_abs="0"/>
    </tripinfo>
    <tripinfo id="L0-HDV-3" depart="129.70" departLane="top-approaching_0" departPos="5.10" departSpeed="0.00" departDelay="0.07" arrival="300.80" arrivalLane="left-exit_1" arrivalPos="410.00" arrivalSpeed="16.49" duration="171.10" routeLength="979.53" waitingTime="94.30" waitingCount="2" stopTime="0.00" timeLoss="110.75" rerouteNo="0" devices="tripinfo_L0-HDV-3 emissions_L0-HDV-3 ssm_L0-HDV-3" vType="L0-HDV-3@L0-HDV-3" speedFactor="0.99" vaporized="">
        <emissions CO_abs="19614.334145" CO2_abs="513950.809768" HC_abs="101.363917" PMx_abs="11.251282" NOx_abs="223.176491" fuel_abs="220.932253" electricity_abs="0"/>
    </tripinfo>
    <tripinfo id="L2-CV-3" depart="138.60" departLane="bottom-approaching_0" departPos="5.10" departSpeed="0.00" departDelay="0.00" arrival="315.60" arrivalLane="left-exit_1" arrivalPos="410.00" arrivalSpeed="19.05" duration="177.00" routeLength="992.31" waitingTime="88.10" waitingCount="4" stopTime="0.00" timeLoss="124.18" rerouteNo="0" devices="tripinfo_L2-CV-3 emissions_L2-CV-3 ssm_L2-CV-3 toc_L2-CV-3 driverstateL2-CV-3" vType="L2-CV-34@L2-CV-3" speedFactor="1.14" vaporized="">
        <emissions CO_abs="17767.141662" CO2_abs="502758.425834" HC_abs="90.769579" PMx_abs="10.053318" NOx_abs="207.855199" fuel_abs="216.121319" electricity_abs="0"/>
    </tripinfo>
    <tripinfo id="L0-HDV-24" depart="197.70" departLane="bottom-approaching_0" departPos="5.10" departSpeed="0.00" departDelay="0.66" arrival="333.00" arrivalLane="top-exit_0" arrivalPos="486.40" arrivalSpeed="18.95" duration="135.30" routeLength="994.90" waitingTime="64.80" waitingCount="1" stopTime="0.00" timeLoss="82.70" rerouteNo="0" devices="tripinfo_L0-HDV-24 emissions_L0-HDV-24 ssm_L0-HDV-24" vType="L0-HDV-52" speedFactor="1.14" vaporized="">
        <emissions CO_abs="13882.885276" CO2_abs="390111.628646" HC_abs="71.670978" PMx_abs="8.009737" NOx_abs="164.078873" fuel_abs="167.697477" electricity_abs="0"/>
    </tripinfo>
    <tripinfo id="L0-HDV-23" depart="193.90" departLane="bottom-approaching_0" departPos="5.10" departSpeed="0.00" departDelay="0.07" arrival="333.90" arrivalLane="right-exit_0" arrivalPos="486.40" arrivalSpeed="19.89" duration="140.00" routeLength="979.43" waitingTime="66.60" waitingCount="1" stopTime="0.00" timeLoss="90.04" rerouteNo="0" devices="tripinfo_L0-HDV-23 emissions_L0-HDV-23 ssm_L0-HDV-23" vType="L0-HDV-23" speedFactor="1.20" vaporized="">
        <emissions CO_abs="15129.242281" CO2_abs="449147.904345" HC_abs="79.443902" PMx_abs="9.272910" NOx_abs="189.608115" fuel_abs="193.074731" electricity_abs="0"/>
    </tripinfo>
    <tripinfo id="L4-CV-3" depart="157.70" departLane="top-approaching_0" departPos="5.10" departSpeed="0.00" departDelay="1.70" arrival="334.40" arrivalLane="left-exit_1" arrivalPos="410.00" arrivalSpeed="18.72" duration="176.70" routeLength="979.53" waitingTime="77.80" waitingCount="44" stopTime="0.00" timeLoss="123.60" rerouteNo="0" devices="tripinfo_L4-CV-3 emissions_L4-CV-3 ssm_L4-CV-3 toc_L4-CV-3 driverstateL4-CV-3" vType="L4-CV-15@L4-CV-3" speedFactor="1.12" vaporized="">
        <emissions CO_abs="16873.544300" CO2_abs="489454.367490" HC_abs="86.830748" PMx_abs="9.580931" NOx_abs="201.689985" fuel_abs="210.402253" electricity_abs="0"/>
    </tripinfo>