<?xml version="1.0" encoding="UTF-8"?>

<!-- generated on 03/31/21 23:11:55 by Eclipse SUMO sumo Version 1.8.0
<configuration xmlns:xsi="http://www.w3.org/2001/XMLSchema-instance" xsi:noNamespaceSchemaLocation="http://sumo.dlr.de/xsd/sumoConfiguration.xsd">

    <input>
        <net-file value="Collision\RealTMSPenetration2\../CollisionIntersection.net.xml"/>
        <route-files value="Collision\RealTMSPenetration2\../CrashedVehicleRoutes.rou.xml,Collision\RealTMSPenetration2\Route-Files/L4-CV-Route.rou.xml,Collision\RealTMSPenetration2\Route-Files/L4-AV-Route.rou.xml,Collision\RealTMSPenetration2\Route-Files/L2-CV-Route.rou.xml,Collision\RealTMSPenetration2\Route-Files/L2-AV-Route.rou.xml,Collision\RealTMSPenetration2\Route-Files/L0-HDV-Route.rou.xml"/>
        <additional-files value="Collision\RealTMSPenetration2\../Additional-Files/Collision-Detectors.add.xml,Collision\RealTMSPenetration2\../Additional-Files/Collision-TMS-Rerouters.add.xml,Collision\RealTMSPenetration2\PreparingVehicleModels/Vehicle-Models/L4-CV.add.xml,Collision\RealTMSPenetration2\PreparingVehicleModels/Vehicle-Models/L4-CV-Left.add.xml,Collision\RealTMSPenetration2\PreparingVehicleModels/Vehicle-Models/L4-CV-Right.add.xml,Collision\RealTMSPenetration2\PreparingVehicleModels/Vehicle-Models/L4-AV.add.xml,Collision\RealTMSPenetration2\PreparingVehicleModels/Vehicle-Models/L4-AV-Left.add.xml,Collision\RealTMSPenetration2\PreparingVehicleModels/Vehicle-Models/L4-AV-Right.add.xml,Collision\RealTMSPenetration2\PreparingVehicleModels/Vehicle-Models/L2-CV.add.xml,Collision\RealTMSPenetration2\PreparingVehicleModels/Vehicle-Models/L2-CV-Left.add.xml,Collision\RealTMSPenetration2\PreparingVehicleModels/Vehicle-Models/L2-CV-Right.add.xml,Collision\RealTMSPenetration2\PreparingVehicleModels/Vehicle-Models/L2-AV.add.xml,Collision\RealTMSPenetration2\PreparingVehicleModels/Vehicle-Models/L2-AV-Left.add.xml,Collision\RealTMSPenetration2\PreparingVehicleModels/Vehicle-Models/L2-AV-Right.add.xml,Collision\RealTMSPenetration2\PreparingVehicleModels/Vehicle-Models/L0-HDV.add.xml,Collision\RealTMSPenetration2\PreparingVehicleModels/Vehicle-Models/L0-HDV-Left.add.xml,Collision\RealTMSPenetration2\PreparingVehicleModels/Vehicle-Models/L0-HDV-Straight.add.xml,Collision\RealTMSPenetration2\../Additional-Files/Collision-Traffic-lights.add.xml,Collision\RealTMSPenetration2\../Additional-Files/Collision-Traffic-Signs.add.xml"/>
    </input>

    <output>
        <tripinfo-output value="Collision\RealTMSPenetration2\Output-Files\TripInfo.xml"/>
    </output>

    <time>
        <begin value="0"/>
        <step-length value="0.1"/>
    </time>

    <processing>
        <ignore-route-errors value="true"/>
        <waiting-time-memory value="300"/>
        <default.action-step-length value="0.1"/>
    </processing>

    <report>
        <no-warnings value="true"/>
    </report>

    <emissions>
        <device.emissions.probability value="1"/>
    </emissions>

    <traci_server>
        <remote-port value="57001"/>
    </traci_server>

    <gui_only>
        <quit-on-end value="true"/>
        <start value="true"/>
        <tracker-interval value="0.1"/>
    </gui_only>

</configuration>
-->

<tripinfos xmlns:xsi="http://www.w3.org/2001/XMLSchema-instance" xsi:noNamespaceSchemaLocation="http://sumo.dlr.de/xsd/tripinfo_file.xsd">
    <tripinfo id="L0-HDV-3" depart="129.70" departLane="right-approaching_0" departPos="5.10" departSpeed="0.00" departDelay="0.07" arrival="191.80" arrivalLane="top-exit_0" arrivalPos="486.40" arrivalSpeed="19.66" duration="62.10" routeLength="979.43" waitingTime="0.00" waitingCount="0" stopTime="0.00" timeLoss="11.46" rerouteNo="0" devices="tripinfo_L0-HDV-3 emissions_L0-HDV-3 ssm_L0-HDV-3" vType="L0-HDV-52" speedFactor="1.18" vaporized="">
        <emissions CO_abs="2521.995469" CO2_abs="208552.823425" HC_abs="15.801764" PMx_abs="3.524336" NOx_abs="80.607766" fuel_abs="89.647855" electricity_abs="0"/>
    </tripinfo>
    <tripinfo id="L2-AV-3" depart="142.10" departLane="left-long-approaching_0" departPos="5.10" departSpeed="0.00" departDelay="3.50" arrival="214.40" arrivalLane="top-exit_0" arrivalPos="486.40" arrivalSpeed="15.11" duration="72.30" routeLength="992.31" waitingTime="0.00" waitingCount="0" stopTime="0.00" timeLoss="5.52" rerouteNo="0" devices="tripinfo_L2-AV-3 emissions_L2-AV-3 ssm_L2-AV-3 toc_L2-AV-3 driverstateL2-AV-3" vType="L2-AV-Left-3" speedFactor="0.91" vaporized="">
        <emissions CO_abs="1535.196580" CO2_abs="193589.749016" HC_abs="9.339360" PMx_abs="2.201227" NOx_abs="67.798401" fuel_abs="83.216552" electricity_abs="0"/>
    </tripinfo>
    <tripinfo id="L2-CV-3" depart="138.60" departLane="left-long-approaching_0" departPos="5.10" departSpeed="0.00" departDelay="0.00" arrival="216.50" arrivalLane="top-exit_0" arrivalPos="486.40" arrivalSpeed="14.25" duration="77.90" routeLength="997.47" waitingTime="0.00" waitingCount="0" stopTime="0.00" timeLoss="6.85" rerouteNo="0" devices="tripinfo_L2-CV-3 emissions_L2-CV-3 ssm_L2-CV-3 toc_L2-CV-3 driverstateL2-CV-3" vType="L2-CV-Left-58@L2-CV-3" speedFactor="0.85" vaporized="">
        <emissions CO_abs="1632.783126" CO2_abs="219752.508250" HC_abs="10.681124" PMx_abs="2.221701" NOx_abs="75.595343" fuel_abs="94.463290" electricity_abs="0"/>
    </tripinfo>
    <tripinfo id="L2-AV-4" depart="149.30" departLane="left-long-approaching_0" departPos="5.10" departSpeed="0.00" departDelay="4.50" arrival="217.30" arrivalLane="top-exit_1" arrivalPos="486.40" arrivalSpeed="18.70" duration="68.00" routeLength="992.31" waitingTime="0.10" waitingCount="1" stopTime="0.00" timeLoss="13.99" rerouteNo="0" devices="tripinfo_L2-AV-4 emissions_L2-AV-4 ssm_L2-AV-4 toc_L2-AV-4 driverstateL2-AV-4" vType="L2-AV-Left-79" speedFactor="1.12" vaporized="">
        <emissions CO_abs="2364.352221" CO2_abs="242613.414329" HC_abs="14.711968" PMx_abs="3.397888" NOx_abs="88.062613" fuel_abs="104.289555" electricity_abs="0"/>
    </tripinfo>
    <tripinfo id="L2-AV-5" depart="154.00" departLane="left-long-approaching_0" departPos="5.10" departSpeed="0.00" departDelay="3.00" arrival="220.10" arrivalLane="top-exit_1" arrivalPos="486.40" arrivalSpeed="17.75" duration="66.10" routeLength="992.31" waitingTime="0.00" waitingCount="0" stopTime="0.00" timeLoss="9.32" rerouteNo="0" devices="tripinfo_L2-AV-5 emissions_L2-AV-5 ssm_L2-AV-5 toc_L2-AV-5 driverstateL2-AV-5" vType="L2-AV-Left-47" speedFactor="1.07" vaporized="">
        <emissions CO_abs="1928.701196" CO2_abs="211320.723178" HC_abs="11.978413" PMx_abs="2.923319" NOx_abs="76.501715" fuel_abs="90.838006" electricity_abs="0"/>
    </tripinfo>
    <tripinfo id="L2-CV-2" depart="132.40" departLane="bottom-approaching_0" departPos="5.10" departSpeed="0.00" departDelay="0.00" arrival="238.90" arrivalLane="right-exit_0" arrivalPos="486.40" arrivalSpeed="20.01" duration="106.50" routeLength="979.43" waitingTime="34.50" waitingCount="1" stopTime="0.00" timeLoss="56.68" rerouteNo="0" devices="tripinfo_L2-CV-2 emissions_L2-CV-2 ssm_L2-CV-2 toc_L2-CV-2 driverstateL2-CV-2" vType="L2-CV-0" speedFactor="1.20" vaporized="">
        <emissions CO_abs="9347.369053" CO2_abs="372129.127376" HC_abs="50.129673" PMx_abs="6.837764" NOx_abs="148.281801" fuel_abs="159.965445" electricity_abs="0"/>
    </tripinfo>
    <tripinfo id="L0-HDV-0" depart="120.00" departLane="bottom-approaching_0" departPos="5.10" departSpeed="0.00" departDelay="0.00" arrival="240.30" arrivalLane="top-exit_0" arrivalPos="486.40" arrivalSpeed="17.33" duration="120.30" routeLength="994.90" waitingTime="47.10" waitingCount="1" stopTime="0.00" timeLoss="62.86" rerouteNo="0" devices="tripinfo_L0-HDV-0 emissions_L0-HDV-0 ssm_L0-HDV-0" vType="L0-HDV-32" speedFactor="1.04" vaporized="">
        <emissions CO_abs="11342.954036" CO2_abs="372703.316314" HC_abs="60.302317" PMx_abs="7.580325" NOx_abs="156.950402" fuel_abs="160.212657" electricity_abs="0"/>
    </tripinfo>
    <tripinfo id="L0-HDV-6" depart="139.30" departLane="top-approaching_0" departPos="5.10" departSpeed="0.00" departDelay="0.04" arrival="240.90" arrivalLane="bottom-exit_0" arrivalPos="486.40" arrivalSpeed="17.87" duration="101.60" routeLength="994.90" waitingTime="27.30" waitingCount="1" stopTime="0.00" timeLoss="45.81" rerouteNo="0" devices="tripinfo_L0-HDV-6 emissions_L0-HDV-6 ssm_L0-HDV-6" vType="L0-HDV-8" speedFactor="1.07" vaporized="">
        <emissions CO_abs="7640.922200" CO2_abs="287000.990955" HC_abs="40.692187" PMx_abs="5.287389" NOx_abs="116.215085" fuel_abs="123.371986" electricity_abs="0"/>
    </tripinfo>
    <tripinfo id="L0-HDV-8" depart="146.90" departLane="bottom-approaching_0" departPos="5.10" departSpeed="0.00" departDelay="1.22" arrival="243.40" arrivalLane="top-exit_0" arrivalPos="486.40" arrivalSpeed="16.48" duration="96.50" routeLength="994.90" waitingTime="20.20" waitingCount="1" stopTime="0.00" timeLoss="36.05" rerouteNo="0" devices="tripinfo_L0-HDV-8 emissions_L0-HDV-8 ssm_L0-HDV-8" vType="L0-HDV-6" speedFactor="0.99" vaporized="">
        <emissions CO_abs="5940.725677" CO2_abs="245176.931564" HC_abs="31.963789" PMx_abs="4.313576" NOx_abs="97.959888" fuel_abs="105.393031" electricity_abs="0"/>
    </tripinfo>
    <tripinfo id="L0-HDV-9" depart="148.90" departLane="top-approaching_0" departPos="5.10" departSpeed="0.00" departDelay="0.01" arrival="243.60" arrivalLane="bottom-exit_0" arrivalPos="486.40" arrivalSpeed="20.55" duration="94.70" routeLength="994.90" waitingTime="17.20" waitingCount="2" stopTime="0.00" timeLoss="46.23" rerouteNo="0" devices="tripinfo_L0-HDV-9 emissions_L0-HDV-9 ssm_L0-HDV-9" vType="L0-HDV-10" speedFactor="1.23" vaporized="">
        <emissions CO_abs="7142.091213" CO2_abs="317489.656722" HC_abs="39.956787" PMx_abs="5.853973" NOx_abs="128.337686" fuel_abs="136.477090" electricity_abs="0"/>
    </tripinfo>
    <tripinfo id="L2-AV-2" depart="136.30" departLane="bottom-approaching_0" departPos="5.10" departSpeed="0.00" departDelay="3.90" arrival="243.90" arrivalLane="right-exit_0" arrivalPos="486.40" arrivalSpeed="16.59" duration="107.60" routeLength="979.43" waitingTime="0.00" waitingCount="0" stopTime="0.00" timeLoss="47.65" rerouteNo="0" devices="tripinfo_L2-AV-2 emissions_L2-AV-2 ssm_L2-AV-2 toc_L2-AV-2 driverstateL2-AV-2" vType="L2-AV-56" speedFactor="1.00" vaporized="">
        <emissions CO_abs="3003.412688" CO2_abs="242877.335006" HC_abs="17.008412" PMx_abs="3.327301" NOx_abs="88.910281" fuel_abs="104.403420" electricity_abs="0"/>
    </tripinfo>
    <tripinfo id="L2-CV-8" depart="169.60" departLane="bottom-approaching_0" departPos="5.10" departSpeed="0.00" departDelay="0.00" arrival="245.40" arrivalLane="right-exit_1" arrivalPos="486.40" arrivalSpeed="19.05" duration="75.80" routeLength="979.43" waitingTime="0.00" waitingCount="0" stopTime="0.00" timeLoss="23.48" rerouteNo="0" devices="tripinfo_L2-CV-8 emissions_L2-CV-8 ssm_L2-CV-8 toc_L2-CV-8 driverstateL2-CV-8" vType="L2-CV-34" speedFactor="1.14" vaporized="">
        <emissions CO_abs="3502.076603" CO2_abs="247428.774412" HC_abs="21.099746" PMx_abs="4.173902" NOx_abs="96.128524" fuel_abs="106.359349" electricity_abs="0"/>
    </tripinfo>
    <tripinfo id="L0-HDV-10" depart="152.10" departLane="bottom-approaching_0" departPos="5.10" departSpeed="0.00" departDelay="0.00" arrival="247.50" arrivalLane="right-exit_0" arrivalPos="486.40" arrivalSpeed="15.20" duration="95.40" routeLength="979.43" waitingTime="0.00" waitingCount="0" stopTime="0.00" timeLoss="29.91" rerouteNo="0" devices="tripinfo_L0-HDV-10 emissions_L0-HDV-10 ssm_L0-HDV-10" vType="L0-HDV-19" speedFactor="0.91" vaporized="">
        <emissions CO_abs="2600.112432" CO2_abs="172126.122239" HC_abs="14.866155" PMx_abs="2.599896" NOx_abs="65.945505" fuel_abs="73.990274" electricity_abs="0"/>
    </tripinfo>
    <tripinfo id="L4-AV-4" depart="168.00" departLane="top-approaching_0" departPos="5.10" departSpeed="0.00" departDelay="0.00" arrival="249.50" arrivalLane="bottom-exit_0" arrivalPos="486.40" arrivalSpeed="16.76" duration="81.50" routeLength="994.90" waitingTime="0.00" waitingCount="0" stopTime="0.00" timeLoss="22.03" rerouteNo="0" devices="tripinfo_L4-AV-4 emissions_L4-AV-4 ssm_L4-AV-4 toc_L4-AV-4 driverstateL4-AV-4" vType="L4-AV-38" speedFactor="1.01" vaporized="">
        <emissions CO_abs="2879.915581" CO2_abs="253145.278744" HC_abs="16.945239" PMx_abs="3.340898" NOx_abs="91.888090" fuel_abs="108.817254" electricity_abs="0"/>
    </tripinfo>
    <tripinfo id="L0-HDV-1" depart="123.30" departLane="top-approaching_0" departPos="5.10" departSpeed="0.00" departDelay="0.09" arrival="251.00" arrivalLane="left-exit_0" arrivalPos="410.00" arrivalSpeed="11.61" duration="127.70" routeLength="979.53" waitingTime="34.70" waitingCount="1" stopTime="0.00" timeLoss="42.99" rerouteNo="0" devices="tripinfo_L0-HDV-1 emissions_L0-HDV-1 ssm_L0-HDV-1" vType="L0-HDV-42@L0-HDV-1" speedFactor="0.71" vaporized="">
        <emissions CO_abs="9195.472646" CO2_abs="315210.837496" HC_abs="49.230714" PMx_abs="5.997662" NOx_abs="131.856855" fuel_abs="135.498699" electricity_abs="0"/>
    </tripinfo>
    <tripinfo id="L2-CV-10" depart="186.40" departLane="top-approaching_0" departPos="5.10" departSpeed="0.00" departDelay="4.40" arrival="252.00" arrivalLane="right-exit_1" arrivalPos="486.40" arrivalSpeed="18.04" duration="65.60" routeLength="992.21" waitingTime="0.00" waitingCount="0" stopTime="0.00" timeLoss="9.69" rerouteNo="0" devices="tripinfo_L2-CV-10 emissions_L2-CV-10 ssm_L2-CV-10 toc_L2-CV-10 driverstateL2-CV-10" vType="L2-CV-48" speedFactor="1.08" vaporized="">
        <emissions CO_abs="2266.318617" CO2_abs="245411.779776" HC_abs="13.796656" PMx_abs="3.549931" NOx_abs="89.366343" fuel_abs="105.492120" electricity_abs="0"/>
    </tripinfo>
    <tripinfo id="L0-HDV-5" depart="136.10" departLane="top-approaching_0" departPos="5.10" departSpeed="0.00" departDelay="0.05" arrival="252.40" arrivalLane="left-exit_1" arrivalPos="410.00" arrivalSpeed="16.10" duration="116.30" routeLength="979.53" waitingTime="33.40" waitingCount="2" stopTime="0.00" timeLoss="54.96" rerouteNo="0" devices="tripinfo_L0-HDV-5 emissions_L0-HDV-5 ssm_L0-HDV-5" vType="L0-HDV-42@L0-HDV-5" speedFactor="0.97" vaporized="">
        <emissions CO_abs="9453.824527" CO2_abs="339673.145772" HC_abs="50.987843" PMx_abs="6.842282" NOx_abs="143.134347" fuel_abs="146.013394" electricity_abs="0"/>
    </tripinfo>
    <tripinfo id="L0-HDV-11" depart="155.40" departLane="top-approaching_0" departPos="5.10" departSpeed="0.00" departDelay="0.09" arrival="255.70" arrivalLane="left-exit_1" arrivalPos="410.00" arrivalSpeed="21.80" duration="100.30" routeLength="979.53" waitingTime="28.20" waitingCount="5" stopTime="0.00" timeLoss="54.60" rerouteNo="0" devices="tripinfo_L0-HDV-11 emissions_L0-HDV-11 ssm_L0-HDV-11" vType="L0-HDV-33@L0-HDV-11" speedFactor="1.31" vaporized="">
        <emissions CO_abs="9298.131238" CO2_abs="354684.729708" HC_abs="50.828343" PMx_abs="7.461559" NOx_abs="149.864475" fuel_abs="152.465554" electricity_abs="0"/>
    </tripinfo>
    <tripinfo id="L2-AV-8" depart="172.70" departLane="bottom-approaching_0" departPos="5.10" departSpeed="0.00" departDelay="3.10" arrival="257.00" arrivalLane="right-exit_0" arrivalPos="486.40" arrivalSpeed="14.90" duration="84.30" routeLength="979.43" waitingTime="0.00" waitingCount="0" stopTime="0.00" timeLoss="17.46" rerouteNo="0" devices="tripinfo_L2-AV-8 emissions_L2-AV-8 ssm_L2-AV-8 toc_L2-AV-8 driverstateL2-AV-8" vType="L2-AV-15" speedFactor="0.89" vaporized="">
        <emissions CO_abs="2829.716770" CO2_abs="246266.534405" HC_abs="16.553477" PMx_abs="3.051729" NOx_abs="89.304985" fuel_abs="105.860558" electricity_abs="0"/>
    </tripinfo>
    <tripinfo id="L0-HDV-18" depart="182.50" departLane="top-approaching_0" departPos="5.10" departSpeed="0.00" departDelay="4.72" arrival="259.10" arrivalLane="right-exit_0" arrivalPos="486.40" arrivalSpeed="15.73" duration="76.60" routeLength="992.21" waitingTime="0.00" waitingCount="0" stopTime="0.00" timeLoss="12.73" rerouteNo="0" devices="tripinfo_L0-HDV-18 emissions_L0-HDV-18 ssm_L0-HDV-18" vType="L0-HDV-23" speedFactor="0.95" vaporized="">
        <emissions CO_abs="2938.323509" CO2_abs="220283.718752" HC_abs="18.440745" PMx_abs="3.587333" NOx_abs="86.472173" fuel_abs="94.690779" electricity_abs="0"/>
    </tripinfo>
    <tripinfo id="L2-CV-12" depart="194.40" departLane="bottom-approaching_0" departPos="5.10" departSpeed="0.00" departDelay="0.00" arrival="259.40" arrivalLane="top-exit_0" arrivalPos="486.40" arrivalSpeed="16.45" duration="65.00" routeLength="994.90" waitingTime="0.00" waitingCount="0" stopTime="0.00" timeLoss="4.44" rerouteNo="0" devices="tripinfo_L2-CV-12 emissions_L2-CV-12 ssm_L2-CV-12 toc_L2-CV-12 driverstateL2-CV-12" vType="L2-CV-48" speedFactor="0.99" vaporized="">
        <emissions CO_abs="1063.795177" CO2_abs="202036.768033" HC_abs="6.496056" PMx_abs="2.084811" NOx_abs="67.104711" fuel_abs="86.847534" electricity_abs="0"/>
    </tripinfo>
    <tripinfo id="L2-AV-12" depart="197.20" departLane="bottom-approaching_0" departPos="5.10" departSpeed="0.00" departDelay="2.80" arrival="260.30" arrivalLane="top-exit_1" arrivalPos="486.40" arrivalSpeed="18.31" duration="63.10" routeLength="994.90" waitingTime="0.00" waitingCount="0" stopTime="0.00" timeLoss="8.70" rerouteNo="0" devices="tripinfo_L2-AV-12 emissions_L2-AV-12 ssm_L2-AV-12 toc_L2-AV-12 driverstateL2-AV-12" vType="L2-AV-52" speedFactor="1.10" vaporized="">
        <emissions CO_abs="1413.898211" CO2_abs="169289.081292" HC_abs="8.798190" PMx_abs="2.234455" NOx_abs="60.166326" fuel_abs="72.770407" electricity_abs="0"/>
    </tripinfo>
    <tripinfo id="L2-AV-10" depart="186.50" departLane="top-approaching_0" departPos="5.10" departSpeed="0.00" departDelay="4.50" arrival="266.40" arrivalLane="right-exit_0" arrivalPos="486.40" arrivalSpeed="17.75" duration="79.90" routeLength="992.21" waitingTime="3.20" waitingCount="2" stopTime="0.00" timeLoss="23.10" rerouteNo="0" devices="tripinfo_L2-AV-10 emissions_L2-AV-10 ssm_L2-AV-10 toc_L2-AV-10 driverstateL2-AV-10" vType="L2-AV-73" speedFactor="1.06" vaporized="">
        <emissions CO_abs="3336.060350" CO2_abs="235167.498833" HC_abs="19.268483" PMx_abs="3.626171" NOx_abs="89.472357" fuel_abs="101.089090" electricity_abs="0"/>
    </tripinfo>
    <tripinfo id="L4-AV-2" depart="144.00" departLane="bottom-approaching_0" departPos="5.10" departSpeed="0.00" departDelay="0.00" arrival="268.70" arrivalLane="left-exit_1" arrivalPos="410.00" arrivalSpeed="19.65" duration="124.70" routeLength="992.31" waitingTime="48.80" waitingCount="4" stopTime="0.00" timeLoss="73.31" rerouteNo="0" devices="tripinfo_L4-AV-2 emissions_L4-AV-2 ssm_L4-AV-2 toc_L4-AV-2 driverstateL4-AV-2" vType="L4-AV-21@L4-AV-2" speedFactor="1.18" vaporized="">
        <emissions CO_abs="11981.470307" CO2_abs="408384.466751" HC_abs="62.730757" PMx_abs="7.910498" NOx_abs="166.191053" fuel_abs="175.551101" electricity_abs="0"/>
    </tripinfo>
    <tripinfo id="L0-HDV-24" depart="200.10" departLane="top-approaching_0" departPos="5.10" departSpeed="0.00" departDelay="3.06" arrival="272.90" arrivalLane="right-exit_0" arrivalPos="486.40" arrivalSpeed="15.99" duration="72.80" routeLength="992.21" waitingTime="0.00" waitingCount="0" stopTime="0.00" timeLoss="9.74" rerouteNo="0" devices="tripinfo_L0-HDV-24 emissions_L0-HDV-24 ssm_L0-HDV-24" vType="L0-HDV-86" speedFactor="0.96" vaporized="">
        <emissions CO_abs="2134.371890" CO2_abs="186751.325976" HC_abs="13.760828" PMx_abs="2.783748" NOx_abs="70.855542" fuel_abs="80.276731" electricity_abs="0"/>
    </tripinfo>
    <tripinfo id="L4-CV-3" depart="157.70" departLane="top-approaching_0" departPos="5.10" departSpeed="0.00" departDelay="1.70" arrival="282.50" arrivalLane="left-exit_1" arrivalPos="410.00" arrivalSpeed="18.72" duration="124.80" routeLength="979.53" waitingTime="19.50" waitingCount="16" stopTime="0.00" timeLoss="71.65" rerouteNo="0" devices="tripinfo_L4-CV-3 emissions_L4-CV-3 ssm_L4-CV-3 toc_L4-CV-3 driverstateL4-CV-3" vType="L4-CV-15@L4-CV-3" speedFactor="1.12" vaporized="">
        <emissions CO_abs="8132.486925" CO2_abs="352811.191808" HC_abs="43.985090" PMx_abs="6.098960" NOx_abs="138.784865" fuel_abs="151.661193" electricity_abs="0"/>
    </tripinfo>
    <tripinfo id="L0-HDV-33" depart="226.00" departLane="right-approaching_0" departPos="5.10" departSpeed="0.00" departDelay="0.07" arrival="289.50" arrivalLane="top-exit_0" arrivalPos="486.40" arrivalSpeed="20.05" duration="63.50" routeLength="979.43" waitingTime="0.00" waitingCount="0" stopTime="0.00" timeLoss="14.00" rerouteNo="0" devices="tripinfo_L0-HDV-33 emissions_L0-HDV-33 ssm_L0-HDV-33" vType="L0-HDV-13" speedFactor="1.21" vaporized="">
        <emissions CO_abs="3109.509850" CO2_abs="243046.677909" HC_abs="19.888916" PMx_abs="4.324703" NOx_abs="96.216189" fuel_abs="104.475124" electricity_abs="0"/>
    </tripinfo>
    <tripinfo id="L0-HDV-7" depart="142.50" departLane="left-long-approaching_0" departPos="5.10" departSpeed="0.00" departDelay="0.03" arrival="292.00" arrivalLane="right-exit_0" arrivalPos="486.40" arrivalSpeed="15.00" duration="149.50" routeLength="995.23" waitingTime="68.30" waitingCount="1" stopTime="0.00" timeLoss="83.31" rerouteNo="0" devices="tripinfo_L0-HDV-7 emissions_L0-HDV-7 ssm_L0-HDV-7" vType="L0-HDV-Straight-92" speedFactor="0.90" vaporized="">
        <emissions CO_abs="13893.004366" CO2_abs="377948.526988" HC_abs="72.006256" PMx_abs="7.669631" NOx_abs="159.934496" fuel_abs="162.469389" electricity_abs="0"/>
    </tripinfo>
    <tripinfo id="L4-CV-2" depart="144.00" departLane="right-approaching_0" departPos="5.10" departSpeed="0.00" departDelay="0.00" arrival="292.30" arrivalLane="left-exit_0" arrivalPos="410.00" arrivalSpeed="16.26" duration="148.30" routeLength="995.12" waitingTime="72.10" waitingCount="1" stopTime="0.00" timeLoss="86.99" rerouteNo="0" devices="tripinfo_L4-CV-2 emissions_L4-CV-2 ssm_L4-CV-2 toc_L4-CV-2 driverstateL4-CV-2" vType="L4-CV-89@L4-CV-2" speedFactor="0.98" vaporized="">
        <emissions CO_abs="14475.760551" CO2_abs="441811.819930" HC_abs="74.097726" PMx_abs="8.137788" NOx_abs="178.724758" fuel_abs="189.922094" electricity_abs="0"/>
    </tripinfo>
    <tripinfo id="L0-HDV-17" depart="174.60" departLane="left-long-approaching_0" departPos="5.10" departSpeed="0.00" departDelay="0.03" arrival="292.30" arrivalLane="bottom-exit_1" arrivalPos="486.40" arrivalSpeed="15.34" duration="117.70" routeLength="979.53" waitingTime="40.00" waitingCount="1" stopTime="0.00" timeLoss="52.96" rerouteNo="0" devices="tripinfo_L0-HDV-17 emissions_L0-HDV-17 ssm_L0-HDV-17" vType="L0-HDV-78" speedFactor="0.92" vaporized="">
        <emissions CO_abs="9354.647284" CO2_abs="308759.005202" HC_abs="49.678025" PMx_abs="6.014301" NOx_abs="128.472957" fuel_abs="132.725488" electricity_abs="0"/>
    </tripinfo>
    <tripinfo id="L4-AV-1" depart="132.00" departLane="left-long-approaching_0" departPos="5.10" departSpeed="0.00" departDelay="0.00" arrival="293.30" arrivalLane="bottom-exit_0" arrivalPos="486.40" arrivalSpeed="13.99" duration="161.30" routeLength="979.53" waitingTime="79.50" waitingCount="1" stopTime="0.00" timeLoss="90.09" rerouteNo="0" devices="tripinfo_L4-AV-1 emissions_L4-AV-1 ssm_L4-AV-1 toc_L4-AV-1 driverstateL4-AV-1" vType="L4-AV-Right-74" speedFactor="0.84" vaporized="">
        <emissions CO_abs="15222.330233" CO2_abs="437447.258434" HC_abs="77.685734" PMx_abs="7.746688" NOx_abs="176.159493" fuel_abs="188.047077" electricity_abs="0"/>
    </tripinfo>
    <tripinfo id="L4-CV-4" depart="168.00" departLane="left-long-approaching_0" departPos="5.10" departSpeed="0.00" departDelay="0.00" arrival="294.60" arrivalLane="right-exit_0" arrivalPos="486.40" arrivalSpeed="16.52" duration="126.60" routeLength="995.23" waitingTime="34.80" waitingCount="11" stopTime="0.00" timeLoss="66.53" rerouteNo="0" devices="tripinfo_L4-CV-4 emissions_L4-CV-4 ssm_L4-CV-4 toc_L4-CV-4 driverstateL4-CV-4" vType="L4-CV-12@L4-CV-4" speedFactor="0.99" vaporized="">
        <emissions CO_abs="8106.788036" CO2_abs="340473.573838" HC_abs="42.832985" PMx_abs="5.479049" NOx_abs="131.532168" fuel_abs="146.358367" electricity_abs="0"/>
    </tripinfo>
    <tripinfo id="L0-HDV-35" depart="234.50" departLane="left-long-approaching_0" departPos="5.10" departSpeed="0.00" departDelay="2.15" arrival="297.90" arrivalLane="bottom-exit_0" arrivalPos="486.40" arrivalSpeed="19.05" duration="63.40" routeLength="979.53" waitingTime="0.00" waitingCount="0" stopTime="0.00" timeLoss="11.35" rerouteNo="0" devices="tripinfo_L0-HDV-35 emissions_L0-HDV-35 ssm_L0-HDV-35" vType="L0-HDV-87" speedFactor="1.15" vaporized="">
        <emissions CO_abs="2786.957564" CO2_abs="220947.562922" HC_abs="17.821326" PMx_abs="3.918452" NOx_abs="87.510419" fuel_abs="94.975640" electricity_abs="0"/>
    </tripinfo>
    <tripinfo id="L2-CV-4" depart="145.60" departLane="left-long-approaching_0" departPos="5.10" departSpeed="0.00" departDelay="0.80" arrival="301.40" arrivalLane="top-exit_0" arrivalPos="486.40" arrivalSpeed="16.95" duration="155.80" routeLength="997.47" waitingTime="65.30" waitingCount="2" stopTime="0.00" timeLoss="96.13" rerouteNo="0" devices="tripinfo_L2-CV-4 emissions_L2-CV-4 ssm_L2-CV-4 toc_L2-CV-4 driverstateL2-CV-4" vType="L2-CV-Left-59@L2-CV-4" speedFactor="1.02" vaporized="">
        <emissions CO_abs="12803.512700" CO2_abs="399052.588762" HC_abs="66.126599" PMx_abs="7.388681" NOx_abs="161.952153" fuel_abs="171.540898" electricity_abs="0"/>
    </tripinfo>
    <tripinfo id="L2-CV-5" depart="151.00" departLane="left-long-approaching_0" departPos="5.10" departSpeed="0.00" departDelay="0.00" arrival="303.10" arrivalLane="top-exit_0" arrivalPos="486.40" arrivalSpeed="16.72" duration="152.10" routeLength="997.47" waitingTime="60.70" waitingCount="30" stopTime="0.00" timeLoss="91.74" rerouteNo="0" devices="tripinfo_L2-CV-5 emissions_L2-CV-5 ssm_L2-CV-5 toc_L2-CV-5 driverstateL2-CV-5" vType="L2-CV-Left-64@L2-CV-5" speedFactor="1.00" vaporized="">
        <emissions CO_abs="12147.918503" CO2_abs="401562.019908" HC_abs="62.555377" PMx_abs="7.210598" NOx_abs="160.824222" fuel_abs="172.619293" electricity_abs="0"/>
    </tripinfo>
    <tripinfo id="L0-HDV-38" depart="244.10" departLane="left-long-approaching_0" departPos="5.10" departSpeed="0.00" departDelay="2.12" arrival="310.20" arrivalLane="bottom-exit_0" arrivalPos="486.40" arrivalSpeed="18.78" duration="66.10" routeLength="979.53" waitingTime="0.00" waitingCount="0" stopTime="0.00" timeLoss="13.19" rerouteNo="0" devices="tripinfo_L0-HDV-38 emissions_L0-HDV-38 ssm_L0-HDV-38" vType="L0-HDV-86" speedFactor="1.13" vaporized="">
        <emissions CO_abs="2698.483875" CO2_abs="218127.457444" HC_abs="17.300861" PMx_abs="3.675123" NOx_abs="85.063331" fuel_abs="93.763656" electricity_abs="0"/>
    </tripinfo>
    <tripinfo id="L2-CV-6" depart="157.20" departLane="right-approaching_0" departPos="5.10" departSpeed="0.00" departDelay="0.00" arrival="315.40" arrivalLane="left-exit_1" arrivalPos="410.00" arrivalSpeed="16.56" duration="158.20" routeLength="995.12" waitingTime="67.70" waitingCount="4" stopTime="0.00" timeLoss="98.20" rerouteNo="0" devices="tripinfo_L2-CV-6 emissions_L2-CV-6 ssm_L2-CV-6 toc_L2-CV-6 driverstateL2-CV-6" vType="L0-HDV-16@L2-CV-6" speedFactor="1.00" vaporized="">
        <emissions CO_abs="15344.628197" CO2_abs="433749.631758" HC_abs="79.408741" PMx_abs="8.621687" NOx_abs="181.739301" fuel_abs="186.456442" electricity_abs="0"/>
    </tripinfo>
    <tripinfo id="L0-HDV-19" depart="183.30" departLane="right-approaching_0" departPos="5.10" departSpeed="0.00" departDelay="2.31" arrival="316.50" arrivalLane="bottom-exit_0" arrivalPos="486.40" arrivalSpeed="14.78" duration="133.20" routeLength="992.21" waitingTime="55.90" waitingCount="2" stopTime="0.00" timeLoss="64.97" rerouteNo="0" devices="tripinfo_L0-HDV-19 emissions_L0-HDV-19 ssm_L0-HDV-19" vType="L0-HDV-58" speedFactor="0.89" vaporized="">
        <emissions CO_abs="11357.485902" CO2_abs="323454.895469" HC_abs="58.962199" PMx_abs="6.437185" NOx_abs="135.587059" fuel_abs="139.043859" electricity_abs="0"/>
    </tripinfo>
    <tripinfo id="L0-HDV-27" depart="206.70" departLane="left-long-approaching_0" departPos="5.10" departSpeed="0.00" departDelay="0.03" arrival="317.20" arrivalLane="right-exit_0" arrivalPos="486.40" arrivalSpeed="17.07" duration="110.50" routeLength="995.23" waitingTime="22.00" waitingCount="2" stopTime="0.00" timeLoss="52.48" rerouteNo="0" devices="tripinfo_L0-HDV-27 emissions_L0-HDV-27 ssm_L0-HDV-27" vType="L0-HDV-Straight-59" speedFactor="1.03" vaporized="">
        <emissions CO_abs="6066.525797" CO2_abs="272180.168125" HC_abs="33.942997" PMx_abs="5.229310" NOx_abs="112.267880" fuel_abs="116.999734" electricity_abs="0"/>
    </tripinfo>
    <tripinfo id="L2-CV-18" depart="231.60" departLane="left-long-approaching_0" departPos="5.10" departSpeed="0.00" departDelay="0.00" arrival="319.90" arrivalLane="top-exit_1" arrivalPos="486.40" arrivalSpeed="17.60" duration="88.30" routeLength="997.47" waitingTime="2.70" waitingCount="1" stopTime="0.00" timeLoss="30.78" rerouteNo="0" devices="tripinfo_L2-CV-18 emissions_L2-CV-18 ssm_L2-CV-18 toc_L2-CV-18 driverstateL2-CV-18" vType="L2-CV-Left-19@L2-CV-18" speedFactor="1.06" vaporized="">
        <emissions CO_abs="3409.000553" CO2_abs="245994.946055" HC_abs="19.472917" PMx_abs="3.832104" NOx_abs="93.027788" fuel_abs="105.743268" electricity_abs="0"/>
    </tripinfo>
    <tripinfo id="L0-HDV-25" depart="200.30" departLane="left-long-approaching_0" departPos="5.10" departSpeed="0.00" departDelay="0.05" arrival="320.00" arrivalLane="right-exit_0" arrivalPos="486.40" arrivalSpeed="17.41" duration="119.70" routeLength="995.23" waitingTime="26.70" waitingCount="2" stopTime="0.00" timeLoss="62.59" rerouteNo="0" devices="tripinfo_L0-HDV-25 emissions_L0-HDV-25 ssm_L0-HDV-25" vType="L0-HDV-Straight-50" speedFactor="1.05" vaporized="">