<?xml version="1.0" encoding="UTF-8"?>

<!-- generated on 03/27/21 17:38:28 by Eclipse SUMO sumo Version 1.8.0
<configuration xmlns:xsi="http://www.w3.org/2001/XMLSchema-instance" xsi:noNamespaceSchemaLocation="http://sumo.dlr.de/xsd/sumoConfiguration.xsd">

    <input>
        <net-file value="Collision\RealTMSPenetration2\../CollisionIntersection.net.xml"/>
        <route-files value="Collision\RealTMSPenetration2\../CrashedVehicleRoutes.rou.xml,Collision\RealTMSPenetration2\Route-Files/L4-CV-Route.rou.xml,Collision\RealTMSPenetration2\Route-Files/L4-AV-Route.rou.xml,Collision\RealTMSPenetration2\Route-Files/L2-CV-Route.rou.xml,Collision\RealTMSPenetration2\Route-Files/L2-AV-Route.rou.xml,Collision\RealTMSPenetration2\Route-Files/L0-HDV-Route.rou.xml"/>
        <additional-files value="Collision\RealTMSPenetration2\../Additional-Files/Collision-Detectors.add.xml,Collision\RealTMSPenetration2\../Additional-Files/Collision-TMS-Rerouters.add.xml,Collision\RealTMSPenetration2\PreparingVehicleModels/Vehicle-Models/L4-CV.add.xml,Collision\RealTMSPenetration2\PreparingVehicleModels/Vehicle-Models/L4-CV-Left.add.xml,Collision\RealTMSPenetration2\PreparingVehicleModels/Vehicle-Models/L4-CV-Right.add.xml,Collision\RealTMSPenetration2\PreparingVehicleModels/Vehicle-Models/L4-AV.add.xml,Collision\RealTMSPenetration2\PreparingVehicleModels/Vehicle-Models/L4-AV-Left.add.xml,Collision\RealTMSPenetration2\PreparingVehicleModels/Vehicle-Models/L4-AV-Right.add.xml,Collision\RealTMSPenetration2\PreparingVehicleModels/Vehicle-Models/L2-CV.add.xml,Collision\RealTMSPenetration2\PreparingVehicleModels/Vehicle-Models/L2-CV-Left.add.xml,Collision\RealTMSPenetration2\PreparingVehicleModels/Vehicle-Models/L2-CV-Right.add.xml,Collision\RealTMSPenetration2\PreparingVehicleModels/Vehicle-Models/L2-AV.add.xml,Collision\RealTMSPenetration2\PreparingVehicleModels/Vehicle-Models/L2-AV-Left.add.xml,Collision\RealTMSPenetration2\PreparingVehicleModels/Vehicle-Models/L2-AV-Right.add.xml,Collision\RealTMSPenetration2\PreparingVehicleModels/Vehicle-Models/L0-HDV.add.xml,Collision\RealTMSPenetration2\PreparingVehicleModels/Vehicle-Models/L0-HDV-Left.add.xml,Collision\RealTMSPenetration2\PreparingVehicleModels/Vehicle-Models/L0-HDV-Straight.add.xml,Collision\RealTMSPenetration2\../Additional-Files/Collision-Traffic-lights.add.xml,Collision\RealTMSPenetration2\../Additional-Files/Collision-Traffic-Signs.add.xml"/>
    </input>

    <output>
        <tripinfo-output value="Collision\RealTMSPenetration2\Output-Files\TripInfo.xml"/>
    </output>

    <time>
        <begin value="0"/>
        <step-length value="0.1"/>
    </time>

    <processing>
        <ignore-route-errors value="true"/>
        <waiting-time-memory value="300"/>
        <default.action-step-length value="0.1"/>
    </processing>

    <report>
        <no-warnings value="true"/>
    </report>

    <emissions>
        <device.emissions.probability value="1"/>
    </emissions>

    <traci_server>
        <remote-port value="51473"/>
    </traci_server>

    <gui_only>
        <quit-on-end value="true"/>
        <start value="true"/>
        <tracker-interval value="0.1"/>
    </gui_only>

</configuration>
-->

<tripinfos xmlns:xsi="http://www.w3.org/2001/XMLSchema-instance" xsi:noNamespaceSchemaLocation="http://sumo.dlr.de/xsd/tripinfo_file.xsd">
    <tripinfo id="L4-CV-5" depart="143.30" departLane="right-approaching_0" departPos="5.10" departSpeed="0.00" departDelay="0.05" arrival="212.20" arrivalLane="bottom-exit_0" arrivalPos="486.40" arrivalSpeed="16.52" duration="68.90" routeLength="992.21" waitingTime="0.00" waitingCount="0" stopTime="0.00" timeLoss="7.81" rerouteNo="0" devices="tripinfo_L4-CV-5 emissions_L4-CV-5 ssm_L4-CV-5 toc_L4-CV-5 driverstateL4-CV-5" vType="L4-CV-12" speedFactor="0.99" vaporized="">
        <emissions CO_abs="1808.966194" CO2_abs="225759.777015" HC_abs="10.838271" PMx_abs="2.712936" NOx_abs="78.934046" fuel_abs="97.045035" electricity_abs="0"/>
    </tripinfo>
    <tripinfo id="L2-AV-2" depart="156.00" departLane="bottom-approaching_0" departPos="5.10" departSpeed="0.00" departDelay="0.00" arrival="237.30" arrivalLane="right-exit_0" arrivalPos="486.40" arrivalSpeed="16.59" duration="81.30" routeLength="979.43" waitingTime="6.70" waitingCount="1" stopTime="0.00" timeLoss="21.32" rerouteNo="0" devices="tripinfo_L2-AV-2 emissions_L2-AV-2 ssm_L2-AV-2 toc_L2-AV-2 driverstateL2-AV-2" vType="L2-AV-56" speedFactor="1.00" vaporized="">
        <emissions CO_abs="3795.192336" CO2_abs="261134.697850" HC_abs="20.751080" PMx_abs="3.702797" NOx_abs="96.282838" fuel_abs="112.251824" electricity_abs="0"/>
    </tripinfo>
    <tripinfo id="L2-CV-5" depart="167.10" departLane="top-approaching_0" departPos="5.10" departSpeed="0.00" departDelay="2.10" arrival="237.80" arrivalLane="bottom-exit_0" arrivalPos="486.40" arrivalSpeed="15.11" duration="70.70" routeLength="994.90" waitingTime="0.00" waitingCount="0" stopTime="0.00" timeLoss="4.74" rerouteNo="0" devices="tripinfo_L2-CV-5 emissions_L2-CV-5 ssm_L2-CV-5 toc_L2-CV-5 driverstateL2-CV-5" vType="L2-CV-3" speedFactor="0.91" vaporized="">
        <emissions CO_abs="1129.795823" CO2_abs="201558.931032" HC_abs="6.810516" PMx_abs="1.851204" NOx_abs="66.544578" fuel_abs="86.642447" electricity_abs="0"/>
    </tripinfo>
    <tripinfo id="L4-CV-2" depart="129.30" departLane="top-approaching_0" departPos="5.10" departSpeed="0.00" departDelay="0.00" arrival="239.60" arrivalLane="right-exit_0" arrivalPos="486.40" arrivalSpeed="16.26" duration="110.30" routeLength="992.21" waitingTime="32.10" waitingCount="1" stopTime="0.00" timeLoss="48.23" rerouteNo="0" devices="tripinfo_L4-CV-2 emissions_L4-CV-2 ssm_L4-CV-2 toc_L4-CV-2 driverstateL4-CV-2" vType="L4-CV-89" speedFactor="0.98" vaporized="">
        <emissions CO_abs="8103.177834" CO2_abs="330750.358978" HC_abs="42.002210" PMx_abs="5.344706" NOx_abs="127.782381" fuel_abs="142.178732" electricity_abs="0"/>
    </tripinfo>
    <tripinfo id="L0-HDV-2" depart="156.00" departLane="top-approaching_0" departPos="5.10" departSpeed="0.00" departDelay="0.00" arrival="244.00" arrivalLane="right-exit_0" arrivalPos="486.40" arrivalSpeed="17.34" duration="88.00" routeLength="992.21" waitingTime="0.00" waitingCount="0" stopTime="0.00" timeLoss="29.88" rerouteNo="0" devices="tripinfo_L0-HDV-2 emissions_L0-HDV-2 ssm_L0-HDV-2" vType="L0-HDV-32" speedFactor="1.04" vaporized="">
        <emissions CO_abs="4508.640339" CO2_abs="260330.823813" HC_abs="26.604430" PMx_abs="4.747474" NOx_abs="105.755495" fuel_abs="111.905446" electricity_abs="0"/>
    </tripinfo>
    <tripinfo id="L4-AV-2" depart="138.00" departLane="top-approaching_0" departPos="5.10" departSpeed="0.00" departDelay="0.00" arrival="247.00" arrivalLane="right-exit_0" arrivalPos="486.40" arrivalSpeed="13.99" duration="109.00" routeLength="992.21" waitingTime="0.00" waitingCount="0" stopTime="0.00" timeLoss="36.90" rerouteNo="0" devices="tripinfo_L4-AV-2 emissions_L4-AV-2 ssm_L4-AV-2 toc_L4-AV-2 driverstateL4-AV-2" vType="L4-AV-74" speedFactor="0.84" vaporized="">
        <emissions CO_abs="2484.534712" CO2_abs="231042.651721" HC_abs="14.943893" PMx_abs="2.682709" NOx_abs="82.553921" fuel_abs="99.316571" electricity_abs="0"/>
    </tripinfo>
    <tripinfo id="L2-CV-4" depart="159.20" departLane="top-approaching_0" departPos="5.10" departSpeed="0.00" departDelay="3.20" arrival="247.30" arrivalLane="right-exit_1" arrivalPos="486.40" arrivalSpeed="16.83" duration="88.10" routeLength="992.21" waitingTime="0.00" waitingCount="0" stopTime="0.00" timeLoss="28.18" rerouteNo="0" devices="tripinfo_L2-CV-4 emissions_L2-CV-4 ssm_L2-CV-4 toc_L2-CV-4 driverstateL2-CV-4" vType="L2-CV-21" speedFactor="1.01" vaporized="">
        <emissions CO_abs="3395.459911" CO2_abs="264481.117902" HC_abs="19.705029" PMx_abs="3.656451" NOx_abs="97.321716" fuel_abs="113.690185" electricity_abs="0"/>
    </tripinfo>
    <tripinfo id="L4-CV-8" depart="163.10" departLane="top-approaching_0" departPos="5.10" departSpeed="0.00" departDelay="5.90" arrival="252.70" arrivalLane="right-exit_0" arrivalPos="486.40" arrivalSpeed="15.61" duration="89.60" routeLength="992.21" waitingTime="0.10" waitingCount="1" stopTime="0.00" timeLoss="24.96" rerouteNo="0" devices="tripinfo_L4-CV-8 emissions_L4-CV-8 ssm_L4-CV-8 toc_L4-CV-8 driverstateL4-CV-8" vType="L4-CV-81" speedFactor="0.94" vaporized="">
        <emissions CO_abs="3731.279031" CO2_abs="266748.243252" HC_abs="21.097896" PMx_abs="3.488904" NOx_abs="97.737741" fuel_abs="114.665191" electricity_abs="0"/>
    </tripinfo>
    <tripinfo id="L4-AV-8" depart="192.00" departLane="top-approaching_0" departPos="5.10" departSpeed="0.00" departDelay="0.00" arrival="259.10" arrivalLane="right-exit_0" arrivalPos="486.40" arrivalSpeed="17.21" duration="67.10" routeLength="992.21" waitingTime="0.00" waitingCount="0" stopTime="0.00" timeLoss="8.49" rerouteNo="0" devices="tripinfo_L4-AV-8 emissions_L4-AV-8 ssm_L4-AV-8 toc_L4-AV-8 driverstateL4-AV-8" vType="L4-AV-94" speedFactor="1.03" vaporized="">
        <emissions CO_abs="1715.973748" CO2_abs="220421.879542" HC_abs="10.744996" PMx_abs="2.810550" NOx_abs="77.980048" fuel_abs="94.750283" electricity_abs="0"/>
    </tripinfo>
    <tripinfo id="L2-CV-3" depart="147.00" departLane="bottom-approaching_0" departPos="5.10" departSpeed="0.00" departDelay="0.00" arrival="260.50" arrivalLane="left-exit_0" arrivalPos="820.00" arrivalSpeed="17.62" duration="113.50" routeLength="1392.31" waitingTime="17.60" waitingCount="1" stopTime="0.00" timeLoss="33.54" rerouteNo="0" devices="tripinfo_L2-CV-3 emissions_L2-CV-3 ssm_L2-CV-3 toc_L2-CV-3 driverstateL2-CV-3" vType="L2-CV-30@L2-CV-3" speedFactor="1.06" vaporized="">
        <emissions CO_abs="5900.814068" CO2_abs="368594.351005" HC_abs="31.523828" PMx_abs="5.382203" NOx_abs="135.208997" fuel_abs="158.444984" electricity_abs="0"/>
    </tripinfo>
    <tripinfo id="L2-CV-2" depart="138.00" departLane="right-approaching_0" departPos="5.10" departSpeed="0.00" departDelay="0.00" arrival="275.90" arrivalLane="top-exit_0" arrivalPos="486.40" arrivalSpeed="20.01" duration="137.90" routeLength="979.43" waitingTime="65.90" waitingCount="1" stopTime="0.00" timeLoss="88.08" rerouteNo="0" devices="tripinfo_L2-CV-2 emissions_L2-CV-2 ssm_L2-CV-2 toc_L2-CV-2 driverstateL2-CV-2" vType="L2-CV-0" speedFactor="1.20" vaporized="">
        <emissions CO_abs="14521.391275" CO2_abs="454545.405154" HC_abs="75.624728" PMx_abs="8.909292" NOx_abs="186.101357" fuel_abs="195.395064" electricity_abs="0"/>
    </tripinfo>
    <tripinfo id="L4-AV-5" depart="165.00" departLane="right-approaching_0" departPos="5.10" departSpeed="0.00" departDelay="0.00" arrival="276.40" arrivalLane="bottom-exit_0" arrivalPos="486.40" arrivalSpeed="17.60" duration="111.40" routeLength="992.21" waitingTime="38.00" waitingCount="1" stopTime="0.00" timeLoss="54.06" rerouteNo="0" devices="tripinfo_L4-AV-5 emissions_L4-AV-5 ssm_L4-AV-5 toc_L4-AV-5 driverstateL4-AV-5" vType="L4-AV-19" speedFactor="1.06" vaporized="">
        <emissions CO_abs="8977.110598" CO2_abs="350015.269881" HC_abs="46.836770" PMx_abs="6.050241" NOx_abs="137.353587" fuel_abs="150.459964" electricity_abs="0"/>
    </tripinfo>
    <tripinfo id="L2-CV-6" depart="174.00" departLane="left-long-approaching_0" departPos="5.10" departSpeed="0.00" departDelay="0.00" arrival="278.40" arrivalLane="bottom-exit_0" arrivalPos="486.40" arrivalSpeed="18.70" duration="104.40" routeLength="1379.53" waitingTime="6.70" waitingCount="2" stopTime="0.00" timeLoss="29.72" rerouteNo="0" devices="tripinfo_L2-CV-6 emissions_L2-CV-6 ssm_L2-CV-6 toc_L2-CV-6 driverstateL2-CV-6" vType="L2-CV-Right-79" speedFactor="1.12" vaporized="">
        <emissions CO_abs="4760.871550" CO2_abs="349299.463828" HC_abs="27.065852" PMx_abs="5.127102" NOx_abs="128.033210" fuel_abs="150.150285" electricity_abs="0"/>
    </tripinfo>
    <tripinfo id="L4-CV-7" depart="152.60" departLane="right-approaching_0" departPos="5.10" departSpeed="0.00" departDelay="0.05" arrival="285.10" arrivalLane="top-exit_0" arrivalPos="486.40" arrivalSpeed="14.64" duration="132.50" routeLength="979.43" waitingTime="41.30" waitingCount="23" stopTime="0.00" timeLoss="64.59" rerouteNo="0" devices="tripinfo_L4-CV-7 emissions_L4-CV-7 ssm_L4-CV-7 toc_L4-CV-7 driverstateL4-CV-7" vType="L4-CV-22" speedFactor="0.88" vaporized="">
        <emissions CO_abs="8349.261302" CO2_abs="331932.257997" HC_abs="44.055866" PMx_abs="5.108598" NOx_abs="127.841226" fuel_abs="142.687425" electricity_abs="0"/>
    </tripinfo>
    <tripinfo id="L4-CV-12" depart="178.30" departLane="left-long-approaching_0" departPos="5.10" departSpeed="0.00" departDelay="2.50" arrival="286.40" arrivalLane="top-exit_0" arrivalPos="486.40" arrivalSpeed="16.47" duration="108.10" routeLength="1397.47" waitingTime="2.70" waitingCount="2" stopTime="0.00" timeLoss="24.84" rerouteNo="0" devices="tripinfo_L4-CV-12 emissions_L4-CV-12 ssm_L4-CV-12 toc_L4-CV-12 driverstateL4-CV-12" vType="L4-CV-Left-59@L4-CV-12" speedFactor="1.02" vaporized="">
        <emissions CO_abs="3937.640935" CO2_abs="302153.240034" HC_abs="22.342600" PMx_abs="4.231369" NOx_abs="110.840227" fuel_abs="129.883918" electricity_abs="0"/>
    </tripinfo>
    <tripinfo id="L4-AV-7" depart="183.00" departLane="right-approaching_0" departPos="5.10" departSpeed="0.00" departDelay="0.00" arrival="286.80" arrivalLane="top-exit_1" arrivalPos="486.40" arrivalSpeed="16.42" duration="103.80" routeLength="979.43" waitingTime="0.00" waitingCount="0" stopTime="0.00" timeLoss="43.14" rerouteNo="0" devices="tripinfo_L4-AV-7 emissions_L4-AV-7 ssm_L4-AV-7 toc_L4-AV-7 driverstateL4-AV-7" vType="L4-AV-85" speedFactor="0.98" vaporized="">
        <emissions CO_abs="3197.761311" CO2_abs="248299.782880" HC_abs="18.225529" PMx_abs="3.440461" NOx_abs="91.435365" fuel_abs="106.734388" electricity_abs="0"/>
    </tripinfo>
    <tripinfo id="L4-CV-15" depart="189.80" departLane="left-long-approaching_0" departPos="5.10" departSpeed="0.00" departDelay="0.05" arrival="287.10" arrivalLane="bottom-exit_0" arrivalPos="486.40" arrivalSpeed="16.25" duration="97.30" routeLength="1379.53" waitingTime="0.00" waitingCount="0" stopTime="0.00" timeLoss="11.37" rerouteNo="0" devices="tripinfo_L4-CV-15 emissions_L4-CV-15 ssm_L4-CV-15 toc_L4-CV-15 driverstateL4-CV-15" vType="L4-CV-Right-30" speedFactor="0.98" vaporized="">
        <emissions CO_abs="2083.062575" CO2_abs="293899.698837" HC_abs="12.830805" PMx_abs="3.248462" NOx_abs="100.665350" fuel_abs="126.335879" electricity_abs="0"/>
    </tripinfo>
    <tripinfo id="L0-HDV-5" depart="212.50" departLane="right-approaching_0" departPos="5.10" departSpeed="0.00" departDelay="2.50" arrival="288.70" arrivalLane="bottom-exit_1" arrivalPos="486.40" arrivalSpeed="20.38" duration="76.20" routeLength="992.21" waitingTime="2.50" waitingCount="1" stopTime="0.00" timeLoss="27.33" rerouteNo="0" devices="tripinfo_L0-HDV-5 emissions_L0-HDV-5 ssm_L0-HDV-5" vType="L0-HDV-57" speedFactor="1.24" vaporized="">
        <emissions CO_abs="4832.161097" CO2_abs="294250.727784" HC_abs="29.043034" PMx_abs="5.771456" NOx_abs="121.599824" fuel_abs="126.485436" electricity_abs="0"/>
    </tripinfo>
    <tripinfo id="L2-AV-3" depart="178.20" departLane="left-long-approaching_0" departPos="5.10" departSpeed="0.00" departDelay="4.20" arrival="292.10" arrivalLane="top-exit_1" arrivalPos="486.40" arrivalSpeed="17.19" duration="113.90" routeLength="1392.31" waitingTime="15.90" waitingCount="2" stopTime="0.00" timeLoss="31.99" rerouteNo="0" devices="tripinfo_L2-AV-3 emissions_L2-AV-3 ssm_L2-AV-3 toc_L2-AV-3 driverstateL2-AV-3" vType="L2-AV-Left-70" speedFactor="1.03" vaporized="">
        <emissions CO_abs="5668.200211" CO2_abs="354454.132639" HC_abs="30.137831" PMx_abs="5.115980" NOx_abs="129.933441" fuel_abs="152.366651" electricity_abs="0"/>
    </tripinfo>
    <tripinfo id="L4-CV-16" depart="194.40" departLane="right-approaching_0" departPos="5.10" departSpeed="0.00" departDelay="0.00" arrival="292.60" arrivalLane="top-exit_0" arrivalPos="486.40" arrivalSpeed="14.83" duration="98.20" routeLength="979.43" waitingTime="0.10" waitingCount="1" stopTime="0.00" timeLoss="31.01" rerouteNo="0" devices="tripinfo_L4-CV-16 emissions_L4-CV-16 ssm_L4-CV-16 toc_L4-CV-16 driverstateL4-CV-16" vType="L4-CV-95" speedFactor="0.89" vaporized="">
        <emissions CO_abs="3493.235838" CO2_abs="256029.294967" HC_abs="20.201049" PMx_abs="3.204911" NOx_abs="93.211013" fuel_abs="110.057695" electricity_abs="0"/>
    </tripinfo>
    <tripinfo id="L2-CV-9" depart="201.00" departLane="left-long-approaching_0" departPos="5.10" departSpeed="0.00" departDelay="0.00" arrival="293.60" arrivalLane="top-exit_1" arrivalPos="486.40" arrivalSpeed="17.75" duration="92.60" routeLength="1397.47" waitingTime="0.00" waitingCount="0" stopTime="0.00" timeLoss="13.00" rerouteNo="0" devices="tripinfo_L2-CV-9 emissions_L2-CV-9 ssm_L2-CV-9 toc_L2-CV-9 driverstateL2-CV-9" vType="L2-CV-Left-47@L2-CV-9" speedFactor="1.07" vaporized="">
        <emissions CO_abs="2138.877303" CO2_abs="275519.064757" HC_abs="13.516176" PMx_abs="3.522682" NOx_abs="97.010316" fuel_abs="118.434350" electricity_abs="0"/>
    </tripinfo>
    <tripinfo id="L4-CV-17" depart="199.10" departLane="right-approaching_0" departPos="5.10" departSpeed="0.00" departDelay="0.05" arrival="293.80" arrivalLane="bottom-exit_0" arrivalPos="486.40" arrivalSpeed="13.76" duration="94.70" routeLength="992.21" waitingTime="4.40" waitingCount="1" stopTime="0.00" timeLoss="21.43" rerouteNo="0" devices="tripinfo_L4-CV-17 emissions_L4-CV-17 ssm_L4-CV-17 toc_L4-CV-17 driverstateL4-CV-17" vType="L4-CV-2" speedFactor="0.83" vaporized="">
        <emissions CO_abs="3291.560499" CO2_abs="252781.409255" HC_abs="19.625278" PMx_abs="3.015814" NOx_abs="91.241032" fuel_abs="108.661701" electricity_abs="0"/>
    </tripinfo>
    <tripinfo id="L2-CV-12" depart="228.00" departLane="right-approaching_0" departPos="5.10" departSpeed="0.00" departDelay="0.00" arrival="295.20" arrivalLane="bottom-exit_1" arrivalPos="486.40" arrivalSpeed="16.90" duration="67.20" routeLength="992.21" waitingTime="0.00" waitingCount="0" stopTime="0.00" timeLoss="7.55" rerouteNo="0" devices="tripinfo_L2-CV-12 emissions_L2-CV-12 ssm_L2-CV-12 toc_L2-CV-12 driverstateL2-CV-12" vType="L2-CV-24" speedFactor="1.01" vaporized="">
        <emissions CO_abs="1843.298729" CO2_abs="234779.206834" HC_abs="11.630511" PMx_abs="3.041514" NOx_abs="83.549881" fuel_abs="100.921848" electricity_abs="0"/>
    </tripinfo>
    <tripinfo id="L4-CV-19" depart="208.40" departLane="right-approaching_0" departPos="5.10" departSpeed="0.00" departDelay="0.05" arrival="295.30" arrivalLane="top-exit_0" arrivalPos="486.40" arrivalSpeed="14.55" duration="86.90" routeLength="979.43" waitingTime="0.10" waitingCount="1" stopTime="0.00" timeLoss="18.39" rerouteNo="0" devices="tripinfo_L4-CV-19 emissions_L4-CV-19 ssm_L4-CV-19 toc_L4-CV-19 driverstateL4-CV-19" vType="L4-CV-6" speedFactor="0.87" vaporized="">
        <emissions CO_abs="2752.129935" CO2_abs="240960.174793" HC_abs="16.346011" PMx_abs="2.783531" NOx_abs="86.029766" fuel_abs="103.579906" electricity_abs="0"/>
    </tripinfo>
    <tripinfo id="L2-AV-4" depart="193.60" departLane="left-long-approaching_0" departPos="5.10" departSpeed="0.00" departDelay="1.60" arrival="296.60" arrivalLane="top-exit_1" arrivalPos="486.40" arrivalSpeed="17.68" duration="103.00" routeLength="1392.31" waitingTime="0.00" waitingCount="0" stopTime="0.00" timeLoss="23.29" rerouteNo="0" devices="tripinfo_L2-AV-4 emissions_L2-AV-4 ssm_L2-AV-4 toc_L2-AV-4 driverstateL2-AV-4" vType="L2-AV-Left-89" speedFactor="1.06" vaporized="">
        <emissions CO_abs="3120.233293" CO2_abs="274199.600113" HC_abs="18.374473" PMx_abs="3.959397" NOx_abs="101.137584" fuel_abs="117.867220" electricity_abs="0"/>
    </tripinfo>
    <tripinfo id="L2-AV-5" depart="210.00" departLane="left-long-approaching_0" departPos="5.10" departSpeed="0.00" departDelay="0.00" arrival="302.60" arrivalLane="top-exit_0" arrivalPos="486.40" arrivalSpeed="17.21" duration="92.60" routeLength="1392.31" waitingTime="0.00" waitingCount="0" stopTime="0.00" timeLoss="10.70" rerouteNo="0" devices="tripinfo_L2-AV-5 emissions_L2-AV-5 ssm_L2-AV-5 toc_L2-AV-5 driverstateL2-AV-5" vType="L2-AV-Left-38" speedFactor="1.03" vaporized="">
        <emissions CO_abs="2356.826394" CO2_abs="242657.375270" HC_abs="13.975563" PMx_abs="3.445833" NOx_abs="89.040636" fuel_abs="104.308166" electricity_abs="0"/>
    </tripinfo>
    <tripinfo id="L4-CV-21" depart="217.70" departLane="left-long-approaching_0" departPos="5.10" departSpeed="0.00" departDelay="0.05" arrival="312.40" arrivalLane="top-exit_0" arrivalPos="486.40" arrivalSpeed="15.82" duration="94.70" routeLength="1397.47" waitingTime="0.00" waitingCount="0" stopTime="0.00" timeLoss="5.40" rerouteNo="0" devices="tripinfo_L4-CV-21 emissions_L4-CV-21 ssm_L4-CV-21 toc_L4-CV-21 driverstateL4-CV-21" vType="L4-CV-Left-56@L4-CV-21" speedFactor="0.95" vaporized="">
        <emissions CO_abs="1362.929898" CO2_abs="281876.162003" HC_abs="8.962352" PMx_abs="2.774052" NOx_abs="93.699376" fuel_abs="121.167402" electricity_abs="0"/>
    </tripinfo>
    <tripinfo id="L4-AV-12" depart="228.00" departLane="left-long-approaching_0" departPos="5.10" departSpeed="0.00" departDelay="0.00" arrival="318.40" arrivalLane="top-exit_0" arrivalPos="486.40" arrivalSpeed="16.79" duration="90.40" routeLength="1392.31" waitingTime="0.00" waitingCount="0" stopTime="0.00" timeLoss="6.55" rerouteNo="0" devices="tripinfo_L4-AV-12 emissions_L4-AV-12 ssm_L4-AV-12 toc_L4-AV-12 driverstateL4-AV-12" vType="L4-AV-Left-8" speedFactor="1.01" vaporized="">
        <emissions CO_abs="1528.504264" CO2_abs="228847.286037" HC_abs="9.759368" PMx_abs="2.767806" NOx_abs="79.562018" fuel_abs="98.372029" electricity_abs="0"/>
    </tripinfo>
    <tripinfo id="L4-CV-3" depart="134.00" departLane="right-approaching_0" departPos="5.10" departSpeed="0.00" departDelay="0.05" arrival="325.60" arrivalLane="left-exit_0" arrivalPos="820.00" arrivalSpeed="18.72" duration="191.60" routeLength="1395.12" waitingTime="87.50" waitingCount="2" stopTime="0.00" timeLoss="117.11" rerouteNo="0" devices="tripinfo_L4-CV-3 emissions_L4-CV-3 ssm_L4-CV-3 toc_L4-CV-3 driverstateL4-CV-3" vType="L4-CV-15@L4-CV-3" speedFactor="1.12" vaporized="">
        <emissions CO_abs="16817.408214" CO2_abs="553208.221298" HC_abs="86.614286" PMx_abs="10.201350" NOx_abs="220.607216" fuel_abs="237.807323" electricity_abs="0"/>
    </tripinfo>
    <tripinfo id="L4-CV-23" depart="227.00" departLane="top-approaching_0" departPos="5.10" departSpeed="0.00" departDelay="0.05" arrival="336.50" arrivalLane="right-exit_1" arrivalPos="486.40" arrivalSpeed="19.65" duration="109.50" routeLength="992.21" waitingTime="40.30" waitingCount="1" stopTime="0.00" timeLoss="58.12" rerouteNo="0" devices="tripinfo_L4-CV-23 emissions_L4-CV-23 ssm_L4-CV-23 toc_L4-CV-23 driverstateL4-CV-23" vType="L4-CV-21" speedFactor="1.18" vaporized="">
        <emissions CO_abs="9843.756949" CO2_abs="374811.242882" HC_abs="52.037692" PMx_abs="6.998779" NOx_abs="149.724842" fuel_abs="161.118546" electricity_abs="0"/>
    </tripinfo>
    <tripinfo id="L2-CV-13" depart="237.00" departLane="bottom-approaching_0" departPos="5.10" departSpeed="0.00" departDelay="0.00" arrival="336.70" arrivalLane="top-exit_0" arrivalPos="486.40" arrivalSpeed="17.75" duration="99.70" routeLength="994.90" waitingTime="30.60" waitingCount="1" stopTime="0.00" timeLoss="43.60" rerouteNo="0" devices="tripinfo_L2-CV-13 emissions_L2-CV-13 ssm_L2-CV-13 toc_L2-CV-13 driverstateL2-CV-13" vType="L2-CV-73" speedFactor="1.06" vaporized="">
        <emissions CO_abs="7451.222305" CO2_abs="324977.648663" HC_abs="39.174988" PMx_abs="5.534895" NOx_abs="126.080743" fuel_abs="139.696526" electricity_abs="0"/>
    </tripinfo>
    <tripinfo id="L2-CV-10" depart="210.00" departLane="top-approaching_0" departPos="5.10" departSpeed="0.00" departDelay="0.00" arrival="339.00" arrivalLane="bottom-exit_0" arrivalPos="486.40" arrivalSpeed="16.14" duration="129.00" routeLength="994.90" waitingTime="56.10" waitingCount="1" stopTime="0.00" timeLoss="67.26" rerouteNo="0" devices="tripinfo_L2-CV-10 emissions_L2-CV-10 ssm_L2-CV-10 toc_L2-CV-10 driverstateL2-CV-10" vType="L2-CV-38" speedFactor="0.97" vaporized="">
        <emissions CO_abs="11470.336210" CO2_abs="382975.989195" HC_abs="58.244425" PMx_abs="6.711014" NOx_abs="151.696151" fuel_abs="164.629783" electricity_abs="0"/>
    </tripinfo>
    <tripinfo id="L2-AV-8" depart="264.00" departLane="bottom-approaching_0" departPos="5.10" departSpeed="0.00" departDelay="0.00" arrival="339.70" arrivalLane="right-exit_0" arrivalPos="486.40" arrivalSpeed="16.81" duration="75.70" routeLength="979.43" waitingTime="1.00" waitingCount="1" stopTime="0.00" timeLoss="16.44" rerouteNo="0" devices="tripinfo_L2-AV-8 emissions_L2-AV-8 ssm_L2-AV-8 toc_L2-AV-8 driverstateL2-AV-8" vType="L2-AV-97" speedFactor="1.01" vaporized="">
        <emissions CO_abs="3022.602388" CO2_abs="252142.116514" HC_abs="17.092249" PMx_abs="3.450322" NOx_abs="91.895756" fuel_abs="108.385921" electricity_abs="0"/>
    </tripinfo>
    <tripinfo id="L2-CV-18" depart="282.00" departLane="bottom-approaching_0" departPos="5.10" departSpeed="0.00" departDelay="0.00" arrival="342.60" arrivalLane="top-exit_0" arrivalPos="486.40" arrivalSpeed="18.31" duration="60.60" routeLength="994.90" waitingTime="0.00" waitingCount="0" stopTime="0.00" timeLoss="6.21" rerouteNo="0" devices="tripinfo_L2-CV-18 emissions_L2-CV-18 ssm_L2-CV-18 toc_L2-CV-18 driverstateL2-CV-18" vType="L2-CV-52" speedFactor="1.10" vaporized="">
        <emissions CO_abs="1338.252321" CO2_abs="211145.282335" HC_abs="8.393052" PMx_abs="2.590005" NOx_abs="71.726197" fuel_abs="90.762693" electricity_abs="0"/>
    </tripinfo>
    <tripinfo id="L2-CV-11" depart="219.00" departLane="top-approaching_0" departPos="5.10" departSpeed="0.00" departDelay="0.00" arrival="345.10" arrivalLane="bottom-exit_0" arrivalPos="486.40" arrivalSpeed="14.90" duration="126.10" routeLength="994.90" waitingTime="38.50" waitingCount="22" stopTime="0.00" timeLoss="59.34" rerouteNo="0" devices="tripinfo_L2-CV-11 emissions_L2-CV-11 ssm_L2-CV-11 toc_L2-CV-11 driverstateL2-CV-11" vType="L2-CV-15" speedFactor="0.89" vaporized="">
        <emissions CO_abs="7516.485840" CO2_abs="320237.970799" HC_abs="39.538709" PMx_abs="4.846492" NOx_abs="122.235170" fuel_abs="137.660038" electricity_abs="0"/>
    </tripinfo>
    <tripinfo id="L0-HDV-8" depart="264.00" departLane="top-approaching_0" departPos="5.10" departSpeed="0.00" departDelay="0.00" arrival="345.10" arrivalLane="right-exit_0" arrivalPos="486.40" arrivalSpeed="14.53" duration="81.10" routeLength="992.21" waitingTime="1.30" waitingCount="1" stopTime="0.00" timeLoss="11.90" rerouteNo="0" devices="tripinfo_L0-HDV-8 emissions_L0-HDV-8 ssm_L0-HDV-8" vType="L0-HDV-75" speedFactor="0.87" vaporized="">
        <emissions CO_abs="3063.780806" CO2_abs="208398.229666" HC_abs="18.728307" PMx_abs="3.485917" NOx_abs="82.756148" fuel_abs="89.581766" electricity_abs="0"/>
    </tripinfo>
    <tripinfo id="L4-CV-22" depart="222.60" departLane="top-approaching_0" departPos="5.10" departSpeed="0.00" departDelay="0.30" arrival="345.40" arrivalLane="bottom-exit_1" arrivalPos="486.40" arrivalSpeed="18.87" duration="122.80" routeLength="994.90" waitingTime="35.60" waitingCount="28" stopTime="0.00" timeLoss="70.21" rerouteNo="0" devices="tripinfo_L4-CV-22 emissions_L4-CV-22 ssm_L4-CV-22 toc_L4-CV-22 driverstateL4-CV-22" vType="L4-CV-7" speedFactor="1.13" vaporized="">
        <emissions CO_abs="7682.758183" CO2_abs="268351.722271" HC_abs="41.087558" PMx_abs="5.239977" NOx_abs="111.775888" fuel_abs="115.355288" electricity_abs="0"/>
    </tripinfo>
    <tripinfo id="L4-AV-3" depart="147.00" departLane="right-approaching_0" departPos="5.10" departSpeed="0.00" departDelay="0.00" arrival="345.50" arrivalLane="left-exit_0" arrivalPos="820.00" arrivalSpeed="16.22" duration="198.50" routeLength="1395.12" waitingTime="26.50" waitingCount="3" stopTime="0.00" timeLoss="112.37" rerouteNo="0" devices="tripinfo_L4-AV-3 emissions_L4-AV-3 ssm_L4-AV-3 toc_L4-AV-3 driverstateL4-AV-3" vType="L4-AV-11@L4-AV-3" speedFactor="0.97" vaporized="">
        <emissions CO_abs="8504.025465" CO2_abs="400322.820909" HC_abs="44.740699" PMx_abs="6.231255" NOx_abs="152.573743" fuel_abs="172.084927" electricity_abs="0"/>
    </tripinfo>
    <tripinfo id="L4-CV-35" depart="286.10" departLane="top-approaching_0" departPos="5.10" departSpeed="0.00" departDelay="3.35" arrival="356.20" arrivalLane="right-exit_0" arrivalPos="486.40" arrivalSpeed="16.95" duration="70.10" routeLength="992.21" waitingTime="0.00" waitingCount="0" stopTime="0.00" timeLoss="10.60" rerouteNo="0" devices="tripinfo_L4-CV-35 emissions_L4-CV-35 ssm_L4-CV-35 toc_L4-CV-35 driverstateL4-CV-35" vType="L4-CV-59" speedFactor="1.02" vaporized="">
        <emissions CO_abs="2152.152820" CO2_abs="240272.307715" HC_abs="13.249067" PMx_abs="3.138581" NOx_abs="86.051073" fuel_abs="103.283277" electricity_abs="0"/>
    </tripinfo>
    <tripinfo id="L2-AV-10" depart="303.40" departLane="top-approaching_0" departPos="5.10" departSpeed="0.00" departDelay="3.40" arrival="368.90" arrivalLane="right-exit_0" arrivalPos="486.40" arrivalSpeed="17.29" duration="65.50" routeLength="992.21" waitingTime="0.00" waitingCount="0" stopTime="0.00" timeLoss="7.15" rerouteNo="0" devices="tripinfo_L2-AV-10 emissions_L2-AV-10 ssm_L2-AV-10 toc_L2-AV-10 driverstateL2-AV-10" vType="L2-AV-23" speedFactor="1.04" vaporized="">
        <emissions CO_abs="1807.830035" CO2_abs="188446.473094" HC_abs="10.829828" PMx_abs="2.683353" NOx_abs="68.940616" fuel_abs="81.005198" electricity_abs="0"/>
    </tripinfo>