<?xml version="1.0" encoding="UTF-8"?>

<!-- generated on 03/19/21 22:04:51 by Eclipse SUMO duarouter Version 1.8.0
<configuration xmlns:xsi="http://www.w3.org/2001/XMLSchema-instance" xsi:noNamespaceSchemaLocation="http://sumo.dlr.de/xsd/duarouterConfiguration.xsd">

    <input>
        <net-file value="Collision/CollisionIntersection.net.xml"/>
        <route-files value="trips.trips.xml"/>
    </input>

    <output>
        <output-file value="Collision/BaselineCAV/Route-Files/L4-CV-Route.rou.xml"/>
        <alternatives-output value="Collision/BaselineCAV/Route-Files/L4-CV-Route.rou.alt.xml"/>
    </output>

    <time>
        <begin value="120"/>
        <end value="3600"/>
    </time>

    <report>
        <no-warnings value="true"/>
        <ignore-errors value="true"/>
        <no-step-log value="true"/>
    </report>

</configuration>
-->

<routes xmlns:xsi="http://www.w3.org/2001/XMLSchema-instance" xsi:noNamespaceSchemaLocation="http://sumo.dlr.de/xsd/routes_file.xsd">
    <vehicle id="L4-CV-1" type="L4-CV" depart="121.86">
        <route edges="left-approaching right-exit"/>
    </vehicle>
    <vehicle id="L4-CV-2" type="L4-CV" depart="123.72">
        <route edges="right-approaching bottom-exit"/>
    </vehicle>
    <vehicle id="L4-CV-3" type="L4-CV" depart="125.58">
        <route edges="bottom-approaching top-exit"/>
    </vehicle>
    <vehicle id="L4-CV-5" type="L4-CV" depart="129.30">
        <route edges="top-approaching left-exit"/>
    </vehicle>
    <vehicle id="L4-CV-6" type="L4-CV" depart="131.16">
        <route edges="top-approaching left-exit"/>
    </vehicle>
    <vehicle id="L4-CV-7" type="L4-CV" depart="133.02">
        <route edges="right-approaching bottom-exit"/>
    </vehicle>
    <vehicle id="L4-CV-8" type="L4-CV" depart="134.88">
        <route edges="right-approaching top-exit"/>
    </vehicle>
    <vehicle id="L4-CV-9" type="L4-CV" depart="136.74">
        <route edges="left-approaching right-exit"/>
    </vehicle>
    <vehicle id="L4-CV-10" type="L4-CV" depart="138.60">
        <route edges="right-approaching bottom-exit"/>
    </vehicle>
    <vehicle id="L4-CV-12" type="L4-CV" depart="142.32">
        <route edges="left-approaching bottom-exit"/>
    </vehicle>
    <vehicle id="L4-CV-13" type="L4-CV" depart="144.18">
        <route edges="top-approaching left-exit"/>
    </vehicle>
    <vehicle id="L4-CV-14" type="L4-CV" depart="146.04">
        <route edges="right-approaching top-exit"/>
    </vehicle>
    <vehicle id="L4-CV-15" type="L4-CV" depart="147.90">
        <route edges="right-approaching top-exit"/>
    </vehicle>
    <vehicle id="L4-CV-16" type="L4-CV" depart="149.76">
        <route edges="left-approaching top-exit"/>
    </vehicle>
    <vehicle id="L4-CV-17" type="L4-CV" depart="151.62">
        <route edges="left-approaching top-exit"/>
    </vehicle>
    <vehicle id="L4-CV-18" type="L4-CV" depart="153.48">
        <route edges="top-approaching bottom-exit"/>
    </vehicle>
    <vehicle id="L4-CV-19" type="L4-CV" depart="155.34">
        <route edges="bottom-approaching left-exit"/>
    </vehicle>
    <vehicle id="L4-CV-20" type="L4-CV" depart="157.20">
        <route edges="top-approaching left-exit"/>
    </vehicle>
    <vehicle id="L4-CV-21" type="L4-CV" depart="159.06">
        <route edges="right-approaching left-exit"/>
    </vehicle>
    <vehicle id="L4-CV-24" type="L4-CV" depart="164.64">
        <route edges="left-approaching top-exit"/>
    </vehicle>
    <vehicle id="L4-CV-25" type="L4-CV" depart="166.50">
        <route edges="right-approaching top-exit"/>
    </vehicle>
    <vehicle id="L4-CV-27" type="L4-CV" depart="170.22">
        <route edges="right-approaching bottom-exit"/>
    </vehicle>
    <vehicle id="L4-CV-29" type="L4-CV" depart="173.94">
        <route edges="top-approaching left-exit"/>
    </vehicle>
    <vehicle id="L4-CV-30" type="L4-CV" depart="175.80">
        <route edges="right-approaching left-exit"/>
    </vehicle>
    <vehicle id="L4-CV-31" type="L4-CV" depart="177.66">
        <route edges="top-approaching left-exit"/>
    </vehicle>
    <vehicle id="L4-CV-32" type="L4-CV" depart="179.52">
        <route edges="left-approaching bottom-exit"/>
    </vehicle>
    <vehicle id="L4-CV-34" type="L4-CV" depart="183.24">
        <route edges="bottom-approaching top-exit"/>
    </vehicle>
    <vehicle id="L4-CV-35" type="L4-CV" depart="185.10">
        <route edges="left-approaching bottom-exit"/>
    </vehicle>
    <vehicle id="L4-CV-36" type="L4-CV" depart="186.96">
        <route edges="left-approaching right-exit"/>
    </vehicle>
    <vehicle id="L4-CV-37" type="L4-CV" depart="188.82">
        <route edges="top-approaching bottom-exit"/>
    </vehicle>
    <vehicle id="L4-CV-38" type="L4-CV" depart="190.68">
        <route edges="right-approaching bottom-exit"/>
    </vehicle>
    <vehicle id="L4-CV-39" type="L4-CV" depart="192.54">
        <route edges="right-approaching left-exit"/>
    </vehicle>
    <vehicle id="L4-CV-41" type="L4-CV" depart="196.26">
        <route edges="left-approaching top-exit"/>
    </vehicle>
    <vehicle id="L4-CV-42" type="L4-CV" depart="198.12">
        <route edges="left-approaching bottom-exit"/>
    </vehicle>
    <vehicle id="L4-CV-43" type="L4-CV" depart="199.98">
        <route edges="right-approaching bottom-exit"/>
    </vehicle>
    <vehicle id="L4-CV-44" type="L4-CV" depart="201.84">
        <route edges="bottom-approaching left-exit"/>
    </vehicle>
    <vehicle id="L4-CV-45" type="L4-CV" depart="203.70">
        <route edges="right-approaching bottom-exit"/>
    </vehicle>
    <vehicle id="L4-CV-46" type="L4-CV" depart="205.56">
        <route edges="bottom-approaching top-exit"/>
    </vehicle>
    <vehicle id="L4-CV-47" type="L4-CV" depart="207.42">
        <route edges="left-approaching top-exit"/>
    </vehicle>
    <vehicle id="L4-CV-48" type="L4-CV" depart="209.28">
        <route edges="top-approaching left-exit"/>
    </vehicle>
    <vehicle id="L4-CV-51" type="L4-CV" depart="214.86">
        <route edges="left-approaching right-exit"/>
    </vehicle>
    <vehicle id="L4-CV-52" type="L4-CV" depart="216.72">
        <route edges="top-approaching left-exit"/>
    </vehicle>
    <vehicle id="L4-CV-53" type="L4-CV" depart="218.58">
        <route edges="left-approaching right-exit"/>
    </vehicle>
    <vehicle id="L4-CV-55" type="L4-CV" depart="222.30">
        <route edges="top-approaching left-exit"/>
    </vehicle>
    <vehicle id="L4-CV-56" type="L4-CV" depart="224.16">
        <route edges="left-approaching bottom-exit"/>
    </vehicle>
    <vehicle id="L4-CV-58" type="L4-CV" depart="227.88">
        <route edges="bottom-approaching right-exit"/>
    </vehicle>
    <vehicle id="L4-CV-59" type="L4-CV" depart="229.74">
        <route edges="right-approaching bottom-exit"/>
    </vehicle>
    <vehicle id="L4-CV-60" type="L4-CV" depart="231.60">
        <route edges="right-approaching left-exit"/>
    </vehicle>
    <vehicle id="L4-CV-61" type="L4-CV" depart="233.46">
        <route edges="right-approaching left-exit"/>
    </vehicle>
    <vehicle id="L4-CV-64" type="L4-CV" depart="239.04">
        <route edges="right-approaching top-exit"/>
    </vehicle>
    <vehicle id="L4-CV-66" type="L4-CV" depart="242.76">
        <route edges="right-approaching left-exit"/>
    </vehicle>
    <vehicle id="L4-CV-68" type="L4-CV" depart="246.48">
        <route edges="left-approaching right-exit"/>
    </vehicle>
    <vehicle id="L4-CV-70" type="L4-CV" depart="250.20">
        <route edges="right-approaching bottom-exit"/>
    </vehicle>
    <vehicle id="L4-CV-71" type="L4-CV" depart="252.06">
        <route edges="left-approaching right-exit"/>
    </vehicle>
    <vehicle id="L4-CV-73" type="L4-CV" depart="255.78">
        <route edges="top-approaching left-exit"/>
    </vehicle>
    <vehicle id="L4-CV-74" type="L4-CV" depart="257.64">
        <route edges="bottom-approaching left-exit"/>
    </vehicle>
    <vehicle id="L4-CV-75" type="L4-CV" depart="259.50">
        <route edges="right-approaching bottom-exit"/>
    </vehicle>
    <vehicle id="L4-CV-77" type="L4-CV" depart="263.22">
        <route edges="top-approaching left-exit"/>
    </vehicle>
    <vehicle id="L4-CV-78" type="L4-CV" depart="265.08">
        <route edges="top-approaching bottom-exit"/>
    </vehicle>
    <vehicle id="L4-CV-79" type="L4-CV" depart="266.94">
        <route edges="left-approaching right-exit"/>
    </vehicle>
    <vehicle id="L4-CV-80" type="L4-CV" depart="268.80">
        <route edges="top-approaching left-exit"/>
    </vehicle>
    <vehicle id="L4-CV-81" type="L4-CV" depart="270.66">
        <route edges="left-approaching bottom-exit"/>
    </vehicle>
    <vehicle id="L4-CV-82" type="L4-CV" depart="272.52">
        <route edges="left-approaching bottom-exit"/>
    </vehicle>
    <vehicle id="L4-CV-84" type="L4-CV" depart="276.24">
        <route edges="bottom-approaching left-exit"/>
    </vehicle>
    <vehicle id="L4-CV-85" type="L4-CV" depart="278.10">
        <route edges="top-approaching right-exit"/>
    </vehicle>
    <vehicle id="L4-CV-86" type="L4-CV" depart="279.96">
        <route edges="top-approaching left-exit"/>
    </vehicle>
    <vehicle id="L4-CV-87" type="L4-CV" depart="281.82">
        <route edges="bottom-approaching left-exit"/>
    </vehicle>
    <vehicle id="L4-CV-88" type="L4-CV" depart="283.68">
        <route edges="top-approaching left-exit"/>
    </vehicle>
    <vehicle id="L4-CV-91" type="L4-CV" depart="289.26">
        <route edges="top-approaching bottom-exit"/>
    </vehicle>
    <vehicle id="L4-CV-92" type="L4-CV" depart="291.12">
        <route edges="bottom-approaching top-exit"/>
    </vehicle>
    <vehicle id="L4-CV-94" type="L4-CV" depart="294.84">
        <route edges="left-approaching top-exit"/>
    </vehicle>
    <vehicle id="L4-CV-95" type="L4-CV" depart="296.70">
        <route edges="top-approaching left-exit"/>
    </vehicle>
    <vehicle id="L4-CV-96" type="L4-CV" depart="298.56">
        <route edges="right-approaching top-exit"/>
    </vehicle>
    <vehicle id="L4-CV-97" type="L4-CV" depart="300.42">
        <route edges="right-approaching left-exit"/>
    </vehicle>
    <vehicle id="L4-CV-99" type="L4-CV" depart="304.14">
        <route edges="left-approaching bottom-exit"/>
    </vehicle>
    <vehicle id="L4-CV-100" type="L4-CV" depart="306.00">
        <route edges="right-approaching left-exit"/>
    </vehicle>
    <vehicle id="L4-CV-101" type="L4-CV" depart="307.86">
        <route edges="top-approaching bottom-exit"/>
    </vehicle>
    <vehicle id="L4-CV-102" type="L4-CV" depart="309.72">
        <route edges="top-approaching right-exit"/>
    </vehicle>
    <vehicle id="L4-CV-104" type="L4-CV" depart="313.44">
        <route edges="top-approaching left-exit"/>
    </vehicle>
    <vehicle id="L4-CV-105" type="L4-CV" depart="315.30">
        <route edges="bottom-approaching right-exit"/>
    </vehicle>
    <vehicle id="L4-CV-106" type="L4-CV" depart="317.16">
        <route edges="bottom-approaching left-exit"/>
    </vehicle>
    <vehicle id="L4-CV-107" type="L4-CV" depart="319.02">
        <route edges="right-approaching left-exit"/>
    </vehicle>
    <vehicle id="L4-CV-108" type="L4-CV" depart="320.88">
        <route edges="left-approaching top-exit"/>
    </vehicle>
    <vehicle id="L4-CV-109" type="L4-CV" depart="322.74">
        <route edges="right-approaching left-exit"/>
    </vehicle>
    <vehicle id="L4-CV-110" type="L4-CV" depart="324.60">
        <route edges="left-approaching top-exit"/>
    </vehicle>
    <vehicle id="L4-CV-111" type="L4-CV" depart="326.46">
        <route edges="left-approaching right-exit"/>
    </vehicle>
    <vehicle id="L4-CV-112" type="L4-CV" depart="328.32">
        <route edges="left-approaching bottom-exit"/>
    </vehicle>
    <vehicle id="L4-CV-113" type="L4-CV" depart="330.18">
        <route edges="left-approaching top-exit"/>
    </vehicle>
    <vehicle id="L4-CV-114" type="L4-CV" depart="332.04">
        <route edges="bottom-approaching right-exit"/>
    </vehicle>
    <vehicle id="L4-CV-116" type="L4-CV" depart="335.76">
        <route edges="top-approaching bottom-exit"/>
    </vehicle>
    <vehicle id="L4-CV-117" type="L4-CV" depart="337.62">
        <route edges="right-approaching top-exit"/>
    </vehicle>
    <vehicle id="L4-CV-118" type="L4-CV" depart="339.48">
        <route edges="bottom-approaching left-exit"/>
    </vehicle>
    <vehicle id="L4-CV-121" type="L4-CV" depart="345.06">
        <route edges="right-approaching bottom-exit"/>
    </vehicle>
    <vehicle id="L4-CV-125" type="L4-CV" depart="352.50">
        <route edges="bottom-approaching left-exit"/>
    </vehicle>
    <vehicle id="L4-CV-127" type="L4-CV" depart="356.22">
        <route edges="left-approaching right-exit"/>
    </vehicle>
    <vehicle id="L4-CV-128" type="L4-CV" depart="358.08">
        <route edges="right-approaching left-exit"/>
    </vehicle>
    <vehicle id="L4-CV-129" type="L4-CV" depart="359.94">
        <route edges="bottom-approaching left-exit"/>
    </vehicle>
    <vehicle id="L4-CV-130" type="L4-CV" depart="361.80">
        <route edges="bottom-approaching left-exit"/>
    </vehicle>
    <vehicle id="L4-CV-131" type="L4-CV" depart="363.66">
        <route edges="right-approaching left-exit"/>
    </vehicle>
    <vehicle id="L4-CV-133" type="L4-CV" depart="367.38">
        <route edges="left-approaching right-exit"/>
    </vehicle>
    <vehicle id="L4-CV-134" type="L4-CV" depart="369.24">
        <route edges="right-approaching left-exit"/>
    </vehicle>
    <vehicle id="L4-CV-135" type="L4-CV" depart="371.10">
        <route edges="top-approaching right-exit"/>
    </vehicle>
    <vehicle id="L4-CV-137" type="L4-CV" depart="374.82">
        <route edges="left-approaching right-exit"/>
    </vehicle>
    <vehicle id="L4-CV-138" type="L4-CV" depart="376.68">
        <route edges="left-approaching right-exit"/>
    </vehicle>
    <vehicle id="L4-CV-140" type="L4-CV" depart="380.40">
        <route edges="left-approaching right-exit"/>
    </vehicle>
    <vehicle id="L4-CV-141" type="L4-CV" depart="382.26">
        <route edges="bottom-approaching left-exit"/>
    </vehicle>
    <vehicle id="L4-CV-142" type="L4-CV" depart="384.12">
        <route edges="left-approaching top-exit"/>
    </vehicle>
    <vehicle id="L4-CV-143" type="L4-CV" depart="385.98">
        <route edges="top-approaching left-exit"/>
    </vehicle>
    <vehicle id="L4-CV-144" type="L4-CV" depart="387.84">
        <route edges="top-approaching right-exit"/>
    </vehicle>
    <vehicle id="L4-CV-146" type="L4-CV" depart="391.56">
        <route edges="bottom-approaching top-exit"/>
    </vehicle>
    <vehicle id="L4-CV-147" type="L4-CV" depart="393.42">
        <route edges="right-approaching top-exit"/>
    </vehicle>
    <vehicle id="L4-CV-149" type="L4-CV" depart="397.14">
        <route edges="right-approaching left-exit"/>
    </vehicle>
    <vehicle id="L4-CV-150" type="L4-CV" depart="399.00">
        <route edges="bottom-approaching right-exit"/>
    </vehicle>
    <vehicle id="L4-CV-152" type="L4-CV" depart="402.72">
        <route edges="right-approaching bottom-exit"/>
    </vehicle>
    <vehicle id="L4-CV-154" type="L4-CV" depart="406.44">
        <route edges="top-approaching bottom-exit"/>
    </vehicle>
    <vehicle id="L4-CV-155" type="L4-CV" depart="408.30">
        <route edges="bottom-approaching top-exit"/>
    </vehicle>
    <vehicle id="L4-CV-156" type="L4-CV" depart="410.16">
        <route edges="bottom-approaching top-exit"/>
    </vehicle>
    <vehicle id="L4-CV-157" type="L4-CV" depart="412.02">
        <route edges="right-approaching top-exit"/>
    </vehicle>
    <vehicle id="L4-CV-158" type="L4-CV" depart="413.88">
        <route edges="top-approaching left-exit"/>
    </vehicle>
    <vehicle id="L4-CV-159" type="L4-CV" depart="415.74">
        <route edges="top-approaching bottom-exit"/>
    </vehicle>
    <vehicle id="L4-CV-160" type="L4-CV" depart="417.60">
        <route edges="right-approaching left-exit"/>
    </vehicle>
    <vehicle id="L4-CV-161" type="L4-CV" depart="419.46">
        <route edges="right-approaching bottom-exit"/>
    </vehicle>
    <vehicle id="L4-CV-162" type="L4-CV" depart="421.32">
        <route edges="right-approaching top-exit"/>
    </vehicle>
    <vehicle id="L4-CV-163" type="L4-CV" depart="423.18">
        <route edges="bottom-approaching left-exit"/>
    </vehicle>
    <vehicle id="L4-CV-164" type="L4-CV" depart="425.04">
        <route edges="left-approaching top-exit"/>
    </vehicle>
    <vehicle id="L4-CV-165" type="L4-CV" depart="426.90">
        <route edges="left-approaching bottom-exit"/>
    </vehicle>
    <vehicle id="L4-CV-166" type="L4-CV" depart="428.76">
        <route edges="left-approaching right-exit"/>
    </vehicle>
    <vehicle id="L4-CV-167" type="L4-CV" depart="430.62">
        <route edges="right-approaching left-exit"/>
    </vehicle>
    <vehicle id="L4-CV-170" type="L4-CV" depart="436.20">
        <route edges="bottom-approaching left-exit"/>
    </vehicle>
    <vehicle id="L4-CV-171" type="L4-CV" depart="438.06">
        <route edges="top-approaching left-exit"/>
    </vehicle>
    <vehicle id="L4-CV-172" type="L4-CV" depart="439.92">
        <route edges="right-approaching bottom-exit"/>
    </vehicle>
    <vehicle id="L4-CV-174" type="L4-CV" depart="443.64">
        <route edges="right-approaching left-exit"/>
    </vehicle>
    <vehicle id="L4-CV-175" type="L4-CV" depart="445.50">
        <route edges="left-approaching right-exit"/>
    </vehicle>
    <vehicle id="L4-CV-176" type="L4-CV" depart="447.36">
        <route edges="top-approaching bottom-exit"/>
    </vehicle>
    <vehicle id="L4-CV-177" type="L4-CV" depart="449.22">
        <route edges="bottom-approaching right-exit"/>
    </vehicle>
    <vehicle id="L4-CV-178" type="L4-CV" depart="451.08">
        <route edges="top-approaching left-exit"/>
    </vehicle>
    <vehicle id="L4-CV-179" type="L4-CV" depart="452.94">
        <route edges="left-approaching right-exit"/>
    </vehicle>
    <vehicle id="L4-CV-180" type="L4-CV" depart="454.80">
        <route edges="bottom-approaching left-exit"/>
    </vehicle>
    <vehicle id="L4-CV-181" type="L4-CV" depart="456.66">
        <route edges="bottom-approaching right-exit"/>
    </vehicle>
    <vehicle id="L4-CV-183" type="L4-CV" depart="460.38">
        <route edges="right-approaching top-exit"/>
    </vehicle>
    <vehicle id="L4-CV-184" type="L4-CV" depart="462.24">
        <route edges="left-approaching right-exit"/>
    </vehicle>
    <vehicle id="L4-CV-185" type="L4-CV" depart="464.10">
        <route edges="left-approaching top-exit"/>
    </vehicle>
    <vehicle id="L4-CV-187" type="L4-CV" depart="467.82">
        <route edges="left-approaching bottom-exit"/>
    </vehicle>
    <vehicle id="L4-CV-189" type="L4-CV" depart="471.54">
        <route edges="bottom-approaching left-exit"/>
    </vehicle>
    <vehicle id="L4-CV-190" type="L4-CV" depart="473.40">
        <route edges="left-approaching right-exit"/>
    </vehicle>
    <vehicle id="L4-CV-191" type="L4-CV" depart="475.26">
        <route edges="bottom-approaching top-exit"/>
    </vehicle>
    <vehicle id="L4-CV-192" type="L4-CV" depart="477.12">
        <route edges="left-approaching right-exit"/>
    </vehicle>
    <vehicle id="L4-CV-193" type="L4-CV" depart="478.98">
        <route edges="left-approaching top-exit"/>
    </vehicle>
    <vehicle id="L4-CV-194" type="L4-CV" depart="480.84">
        <route edges="top-approaching left-exit"/>
    </vehicle>
    <vehicle id="L4-CV-195" type="L4-CV" depart="482.70">
        <route edges="left-approaching right-exit"/>
    </vehicle>
    <vehicle id="L4-CV-196" type="L4-CV" depart="484.56">
        <route edges="top-approaching left-exit"/>
    </vehicle>
    <vehicle id="L4-CV-197" type="L4-CV" depart="486.42">
        <route edges="right-approaching top-exit"/>
    </vehicle>
    <vehicle id="L4-CV-199" type="L4-CV" depart="490.14">
        <route edges="left-approaching right-exit"/>
    </vehicle>
    <vehicle id="L4-CV-200" type="L4-CV" depart="492.00">
        <route edges="right-approaching top-exit"/>
    </vehicle>
    <vehicle id="L4-CV-201" type="L4-CV" depart="493.86">
        <route edges="top-approaching left-exit"/>
    </vehicle>
    <vehicle id="L4-CV-202" type="L4-CV" depart="495.72">
        <route edges="bottom-approaching left-exit"/>
    </vehicle>
    <vehicle id="L4-CV-203" type="L4-CV" depart="497.58">
        <route edges="bottom-approaching right-exit"/>
    </vehicle>
    <vehicle id="L4-CV-205" type="L4-CV" depart="501.30">
        <route edges="left-approaching top-exit"/>
    </vehicle>
    <vehicle id="L4-CV-207" type="L4-CV" depart="505.02">
        <route edges="right-approaching bottom-exit"/>
    </vehicle>
    <vehicle id="L4-CV-208" type="L4-CV" depart="506.88">
        <route edges="bottom-approaching top-exit"/>
    </vehicle>
    <vehicle id="L4-CV-210" type="L4-CV" depart="510.60">
        <route edges="left-approaching right-exit"/>
    </vehicle>
    <vehicle id="L4-CV-211" type="L4-CV" depart="512.46">
        <route edges="bottom-approaching left-exit"/>
    </vehicle>
    <vehicle id="L4-CV-214" type="L4-CV" depart="518.04">
        <route edges="top-approaching left-exit"/>
    </vehicle>
    <vehicle id="L4-CV-215" type="L4-CV" depart="519.90">
        <route edges="left-approaching bottom-exit"/>
    </vehicle>
    <vehicle id="L4-CV-216" type="L4-CV" depart="521.76">
        <route edges="left-approaching right-exit"/>
    </vehicle>
    <vehicle id="L4-CV-217" type="L4-CV" depart="523.62">
        <route edges="bottom-approaching top-exit"/>
    </vehicle>
    <vehicle id="L4-CV-218" type="L4-CV" depart="525.48">
        <route edges="top-approaching bottom-exit"/>
    </vehicle>
    <vehicle id="L4-CV-219" type="L4-CV" depart="527.34">
        <route edges="top-approaching left-exit"/>
    </vehicle>
    <vehicle id="L4-CV-221" type="L4-CV" depart="531.06">
        <route edges="left-approaching right-exit"/>
    </vehicle>
    <vehicle id="L4-CV-222" type="L4-CV" depart="532.92">
        <route edges="right-approaching top-exit"/>
    </vehicle>
    <vehicle id="L4-CV-223" type="L4-CV" depart="534.78">
        <route edges="left-approaching right-exit"/>
    </vehicle>
    <vehicle id="L4-CV-224" type="L4-CV" depart="536.64">
        <route edges="top-approaching right-exit"/>
    </vehicle>
    <vehicle id="L4-CV-225" type="L4-CV" depart="538.50">
        <route edges="left-approaching bottom-exit"/>
    </vehicle>
    <vehicle id="L4-CV-228" type="L4-CV" depart="544.08">
        <route edges="left-approaching bottom-exit"/>
    </vehicle>
    <vehicle id="L4-CV-230" type="L4-CV" depart="547.80">
        <route edges="bottom-approaching top-exit"/>
    </vehicle>
    <vehicle id="L4-CV-231" type="L4-CV" depart="549.66">
        <route edges="right-approaching bottom-exit"/>
    </vehicle>
    <vehicle id="L4-CV-232" type="L4-CV" depart="551.52">
        <route edges="top-approaching bottom-exit"/>
    </vehicle>
    <vehicle id="L4-CV-233" type="L4-CV" depart="553.38">
        <route edges="left-approaching right-exit"/>
    </vehicle>
    <vehicle id="L4-CV-234" type="L4-CV" depart="555.24">
        <route edges="right-approaching left-exit"/>
    </vehicle>
    <vehicle id="L4-CV-235" type="L4-CV" depart="557.10">
        <route edges="right-approaching left-exit"/>
    </vehicle>
    <vehicle id="L4-CV-236" type="L4-CV" depart="558.96">
        <route edges="left-approaching bottom-exit"/>
    </vehicle>
    <vehicle id="L4-CV-237" type="L4-CV" depart="560.82">
        <route edges="bottom-approaching right-exit"/>
    </vehicle>
    <vehicle id="L4-CV-238" type="L4-CV" depart="562.68">
        <route edges="right-approaching left-exit"/>
    </vehicle>
    <vehicle id="L4-CV-239" type="L4-CV" depart="564.54">
        <route edges="right-approaching left-exit"/>
    </vehicle>
    <vehicle id="L4-CV-241" type="L4-CV" depart="568.26">
        <route edges="top-approaching bottom-exit"/>
    </vehicle>
    <vehicle id="L4-CV-243" type="L4-CV" depart="571.98">
        <route edges="right-approaching left-exit"/>
    </vehicle>
    <vehicle id="L4-CV-245" type="L4-CV" depart="575.70">
        <route edges="left-approaching right-exit"/>
    </vehicle>
    <vehicle id="L4-CV-246" type="L4-CV" depart="577.56">
        <route edges="left-approaching top-exit"/>
    </vehicle>
    <vehicle id="L4-CV-247" type="L4-CV" depart="579.42">
        <route edges="bottom-approaching left-exit"/>
    </vehicle>
    <vehicle id="L4-CV-251" type="L4-CV" depart="586.86">
        <route edges="left-approaching right-exit"/>
    </vehicle>
    <vehicle id="L4-CV-252" type="L4-CV" depart="588.72">
        <route edges="top-approaching right-exit"/>
    </vehicle>
    <vehicle id="L4-CV-253" type="L4-CV" depart="590.58">
        <route edges="right-approaching bottom-exit"/>
    </vehicle>
    <vehicle id="L4-CV-254" type="L4-CV" depart="592.44">
        <route edges="left-approaching bottom-exit"/>
    </vehicle>
    <vehicle id="L4-CV-256" type="L4-CV" depart="596.16">
        <route edges="bottom-approaching left-exit"/>
    </vehicle>
    <vehicle id="L4-CV-257" type="L4-CV" depart="598.02">
        <route edges="right-approaching bottom-exit"/>
    </vehicle>
    <vehicle id="L4-CV-259" type="L4-CV" depart="601.74">
        <route edges="top-approaching left-exit"/>
    </vehicle>
    <vehicle id="L4-CV-261" type="L4-CV" depart="605.46">
        <route edges="right-approaching top-exit"/>
    </vehicle>
    <vehicle id="L4-CV-262" type="L4-CV" depart="607.32">
        <route edges="right-approaching left-exit"/>
    </vehicle>
    <vehicle id="L4-CV-263" type="L4-CV" depart="609.18">
        <route edges="top-approaching left-exit"/>
    </vehicle>
    <vehicle id="L4-CV-265" type="L4-CV" depart="612.90">
        <route edges="bottom-approaching right-exit"/>
    </vehicle>
    <vehicle id="L4-CV-266" type="L4-CV" depart="614.76">
        <route edges="right-approaching left-exit"/>
    </vehicle>
    <vehicle id="L4-CV-268" type="L4-CV" depart="618.48">
        <route edges="bottom-approaching left-exit"/>
    </vehicle>
    <vehicle id="L4-CV-269" type="L4-CV" depart="620.34">
        <route edges="bottom-approaching left-exit"/>
    </vehicle>
    <vehicle id="L4-CV-270" type="L4-CV" depart="622.20">
        <route edges="right-approaching left-exit"/>
    </vehicle>
    <vehicle id="L4-CV-271" type="L4-CV" depart="624.06">
        <route edges="left-approaching top-exit"/>
    </vehicle>
    <vehicle id="L4-CV-272" type="L4-CV" depart="625.92">
        <route edges="top-approaching bottom-exit"/>
    </vehicle>
    <vehicle id="L4-CV-274" type="L4-CV" depart="629.64">
        <route edges="bottom-approaching left-exit"/>
    </vehicle>
    <vehicle id="L4-CV-275" type="L4-CV" depart="631.50">
        <route edges="left-approaching bottom-exit"/>
    </vehicle>
    <vehicle id="L4-CV-276" type="L4-CV" depart="633.36">
        <route edges="left-approaching top-exit"/>
    </vehicle>
    <vehicle id="L4-CV-277" type="L4-CV" depart="635.22">
        <route edges="left-approaching top-exit"/>
    </vehicle>
    <vehicle id="L4-CV-278" type="L4-CV" depart="637.08">
        <route edges="right-approaching bottom-exit"/>
    </vehicle>
    <vehicle id="L4-CV-279" type="L4-CV" depart="638.94">
        <route edges="top-approaching right-exit"/>
    </vehicle>
    <vehicle id="L4-CV-280" type="L4-CV" depart="640.80">
        <route edges="top-approaching right-exit"/>
    </vehicle>
    <vehicle id="L4-CV-281" type="L4-CV" depart="642.66">
        <route edges="right-approaching left-exit"/>
    </vehicle>
    <vehicle id="L4-CV-283" type="L4-CV" depart="646.38">
        <route edges="top-approaching left-exit"/>
    </vehicle>
    <vehicle id="L4-CV-284" type="L4-CV" depart="648.24">
        <route edges="right-approaching left-exit"/>
    </vehicle>
    <vehicle id="L4-CV-287" type="L4-CV" depart="653.82">
        <route edges="bottom-approaching left-exit"/>
    </vehicle>
    <vehicle id="L4-CV-288" type="L4-CV" depart="655.68">
        <route edges="right-approaching left-exit"/>
    </vehicle>
    <vehicle id="L4-CV-289" type="L4-CV" depart="657.54">
        <route edges="left-approaching right-exit"/>
    </vehicle>
    <vehicle id="L4-CV-291" type="L4-CV" depart="661.26">
        <route edges="right-approaching left-exit"/>
    </vehicle>
    <vehicle id="L4-CV-292" type="L4-CV" depart="663.12">
        <route edges="bottom-approaching top-exit"/>
    </vehicle>
    <vehicle id="L4-CV-293" type="L4-CV" depart="664.98">
        <route edges="right-approaching left-exit"/>
    </vehicle>
    <vehicle id="L4-CV-295" type="L4-CV" depart="668.70">
        <route edges="right-approaching left-exit"/>
    </vehicle>
    <vehicle id="L4-CV-296" type="L4-CV" depart="670.56">
        <route edges="bottom-approaching left-exit"/>
    </vehicle>
    <vehicle id="L4-CV-297" type="L4-CV" depart="672.42">
        <route edges="right-approaching bottom-exit"/>
    </vehicle>
    <vehicle id="L4-CV-298" type="L4-CV" depart="674.28">
        <route edges="left-approaching bottom-exit"/>
    </vehicle>
    <vehicle id="L4-CV-299" type="L4-CV" depart="676.14">
        <route edges="left-approaching bottom-exit"/>
    </vehicle>
    <vehicle id="L4-CV-300" type="L4-CV" depart="678.00">
        <route edges="left-approaching bottom-exit"/>
    </vehicle>
    <vehicle id="L4-CV-302" type="L4-CV" depart="681.72">
        <route edges="bottom-approaching left-exit"/>
    </vehicle>
    <vehicle id="L4-CV-305" type="L4-CV" depart="687.30">
        <route edges="right-approaching bottom-exit"/>
    </vehicle>
    <vehicle id="L4-CV-307" type="L4-CV" depart="691.02">
        <route edges="bottom-approaching top-exit"/>