<additional>
    <e1Detector id="det_0" lane="preparation_2" pos="40" freq="1000" file="left-approaching.out.xml"/>
    <e1Detector id="rerouting-left-vehicles" lane="preparation_2" pos="10" freq="1000" file="left-approaching.out.xml"/>
    <e1Detector id="Issuing-ToC-in-Vehicle" lane="preparation_2" pos="80" freq="1000" file="left-approaching.out.xml"/>


    <e1Detector id="det_2" lane="preparation_1" pos="128" freq="1000" file="left-short-approaching.out.xml"/>

    <e1Detector id="det_4" lane="top-approaching_0" pos="475" freq="1000" file="left-approaching.out.xml"/>
    <e1Detector id="det_5" lane="right-approaching_1" pos="475" freq="1000" file="left-short-approaching.out.xml"/>
    <e1Detector id="det_6" lane="bottom-approaching_2" pos="475" freq="1000" file="left-short-approaching.out.xml"/>

    <e1Detector id="left-long-approaching_0" lane="left-long-approaching_0" pos="450" freq="1000" file="left-short-approaching.out.xml"/>
    <e1Detector id="left-long-approaching_1" lane="left-long-approaching_1" pos="450" freq="1000" file="left-short-approaching.out.xml"/>
    <e1Detector id="left-long-approaching_2" lane="left-long-approaching_2" pos="450" freq="1000" file="left-short-approaching.out.xml"/>

</additional>