<configuration>
    <input>
        <net-file value="../RoadworksIntersection.net.xml"/>
        <route-files value="Route-Files/L4-CV-Route.rou.xml"/>
        <additional-files value="Additional-Files/Roadworks-Baseline-CAV-Detectors.add.xml, Additional-Files/Roadworks-Baseline-CAV-Rerouters.add.xml, 
        ../Additional-Files/Roadworks-Traffic-lights.add.xml, PreparingVehicleModels/Vehicle-Models/L4-CV.add.xml, 
        PreparingVehicleModels/Vehicle-Models/L4-CV-Left.add.xml, PreparingVehicleModels/Vehicle-Models/L0-HDV.add.xml, 
        PreparingVehicleModels/Vehicle-Models/L4-CV-Straight.add.xml, ../Additional-Files/Roadworks-Traffic-Signs.add.xml"/>    
    </input>
    <time>
        <begin value="0" />
        <step-length value="0.1" /> 
    </time>
    <processing>
        <default.action-step-length value="0.1"/>
    </processing>
</configuration>
