<?xml version="1.0" ?><!-- generated on 03/31/21 18:03:36 by Eclipse SUMO duarouter Version 1.8.0
<configuration xmlns:xsi="http://www.w3.org/2001/XMLSchema-instance" xsi:noNamespaceSchemaLocation="http://sumo.dlr.de/xsd/duarouterConfiguration.xsd">

    <input>
        <net-file value="Roadworks/RoadworksIntersection.net.xml"/>
        <route-files value="trips.trips.xml"/>
    </input>

    <output>
        <output-file value="Roadworks/RealTMSPenetration1/Route-Files/L2-AV-Route.rou.xml"/>
        <alternatives-output value="Roadworks/RealTMSPenetration1/Route-Files/L2-AV-Route.rou.alt.xml"/>
    </output>

    <time>
        <begin value="0"/>
        <end value="3600"/>
    </time>

    <report>
        <no-warnings value="true"/>
        <ignore-errors value="true"/>
        <no-step-log value="true"/>
    </report>

</configuration>
--><routes xmlns:xsi="http://www.w3.org/2001/XMLSchema-instance" xsi:noNamespaceSchemaLocation="http://sumo.dlr.de/xsd/routes_file.xsd">
    <vehicle id="L2-AV-2" type="L2-AV-" depart="12.40">
        <route edges="top-approaching right-exit"/>
    </vehicle>
    <vehicle id="L2-AV-3" type="L2-AV-" depart="18.60">
        <route edges="right-approaching closed-lane remerging-lane left-exit"/>
    </vehicle>
    <vehicle id="L2-AV-5" type="L2-AV-" depart="31.00">
        <route edges="right-approaching bottom-exit"/>
    </vehicle>
    <vehicle id="L2-AV-7" type="L2-AV-" depart="43.40">
        <route edges="right-approaching top-exit"/>
    </vehicle>
    <vehicle id="L2-AV-8" type="L2-AV-" depart="49.60">
        <route edges="top-approaching right-exit"/>
    </vehicle>
    <vehicle id="L2-AV-12" type="L2-AV-Left-" depart="74.40">
        <route edges="left-long-approaching preparation"/>
    </vehicle>
    <vehicle id="L2-AV-15" type="L2-AV-Right-" depart="93.00">
        <route edges="left-long-approaching preparation left-short-approaching bottom-exit"/>
    </vehicle>
    <vehicle id="L2-AV-16" type="L2-AV-" depart="99.20">
        <route edges="right-approaching top-exit"/>
    </vehicle>
    <vehicle id="L2-AV-17" type="L2-AV-" depart="105.40">
        <route edges="right-approaching bottom-exit"/>
    </vehicle>
    <vehicle id="L2-AV-19" type="L2-AV-" depart="117.80">
        <route edges="right-approaching top-exit"/>
    </vehicle>
    <vehicle id="L2-AV-21" type="L2-AV-Left-" depart="130.20">
        <route edges="left-long-approaching preparation"/>
    </vehicle>
    <vehicle id="L2-AV-22" type="L2-AV-" depart="136.40">
        <route edges="top-approaching bottom-exit"/>
    </vehicle>
    <vehicle id="L2-AV-23" type="L2-AV-" depart="142.60">
        <route edges="top-approaching right-exit"/>
    </vehicle>
    <vehicle id="L2-AV-24" type="L2-AV-" depart="148.80">
        <route edges="left-long-approaching preparation left-short-approaching right-exit"/>
    </vehicle>
    <vehicle id="L2-AV-25" type="L2-AV-Left-" depart="155.00">
        <route edges="left-long-approaching preparation"/>
    </vehicle>
    <vehicle id="L2-AV-26" type="L2-AV-Left-" depart="161.20">
        <route edges="left-long-approaching preparation"/>
    </vehicle>
    <vehicle id="L2-AV-27" type="L2-AV-Left-" depart="167.40">
        <route edges="left-long-approaching preparation"/>
    </vehicle>
    <vehicle id="L2-AV-28" type="L2-AV-" depart="173.60">
        <route edges="top-approaching closed-lane remerging-lane left-exit"/>
    </vehicle>
    <vehicle id="L2-AV-29" type="L2-AV-" depart="179.80">
        <route edges="right-approaching top-exit"/>
    </vehicle>
    <vehicle id="L2-AV-30" type="L2-AV-" depart="186.00">
        <route edges="right-approaching closed-lane remerging-lane left-exit"/>
    </vehicle>
    <vehicle id="L2-AV-31" type="L2-AV-" depart="192.20">
        <route edges="bottom-approaching closed-lane remerging-lane left-exit"/>
    </vehicle>
    <vehicle id="L2-AV-32" type="L2-AV-" depart="198.40">
        <route edges="right-approaching bottom-exit"/>
    </vehicle>
    <vehicle id="L2-AV-33" type="L2-AV-" depart="204.60">
        <route edges="top-approaching closed-lane remerging-lane left-exit"/>
    </vehicle>
    <vehicle id="L2-AV-34" type="L2-AV-" depart="210.80">
        <route edges="top-approaching closed-lane remerging-lane left-exit"/>
    </vehicle>
    <vehicle id="L2-AV-35" type="L2-AV-" depart="217.00">
        <route edges="top-approaching right-exit"/>
    </vehicle>
    <vehicle id="L2-AV-38" type="L2-AV-Right-" depart="235.60">
        <route edges="left-long-approaching preparation left-short-approaching bottom-exit"/>
    </vehicle>
    <vehicle id="L2-AV-39" type="L2-AV-" depart="241.80">
        <route edges="right-approaching top-exit"/>
    </vehicle>
    <vehicle id="L2-AV-40" type="L2-AV-" depart="248.00">
        <route edges="right-approaching bottom-exit"/>
    </vehicle>
    <vehicle id="L2-AV-41" type="L2-AV-" depart="254.20">
        <route edges="top-approaching right-exit"/>
    </vehicle>
    <vehicle id="L2-AV-42" type="L2-AV-" depart="260.40">
        <route edges="top-approaching bottom-exit"/>
    </vehicle>
    <vehicle id="L2-AV-43" type="L2-AV-" depart="266.60">
        <route edges="right-approaching bottom-exit"/>
    </vehicle>
    <vehicle id="L2-AV-44" type="L2-AV-" depart="272.80">
        <route edges="right-approaching closed-lane remerging-lane left-exit"/>
    </vehicle>
    <vehicle id="L2-AV-45" type="L2-AV-" depart="279.00">
        <route edges="bottom-approaching top-exit"/>
    </vehicle>
    <vehicle id="L2-AV-46" type="L2-AV-" depart="285.20">
        <route edges="bottom-approaching right-exit"/>
    </vehicle>
    <vehicle id="L2-AV-47" type="L2-AV-" depart="291.40">
        <route edges="top-approaching bottom-exit"/>
    </vehicle>
    <vehicle id="L2-AV-48" type="L2-AV-" depart="297.60">
        <route edges="bottom-approaching top-exit"/>
    </vehicle>
    <vehicle id="L2-AV-49" type="L2-AV-" depart="303.80">
        <route edges="left-long-approaching preparation left-short-approaching right-exit"/>
    </vehicle>
    <vehicle id="L2-AV-50" type="L2-AV-" depart="310.00">
        <route edges="bottom-approaching closed-lane remerging-lane left-exit"/>
    </vehicle>
    <vehicle id="L2-AV-51" type="L2-AV-" depart="316.20">
        <route edges="bottom-approaching right-exit"/>
    </vehicle>
    <vehicle id="L2-AV-52" type="L2-AV-" depart="322.40">
        <route edges="bottom-approaching top-exit"/>
    </vehicle>
    <vehicle id="L2-AV-53" type="L2-AV-" depart="328.60">
        <route edges="bottom-approaching right-exit"/>
    </vehicle>
    <vehicle id="L2-AV-54" type="L2-AV-" depart="334.80">
        <route edges="bottom-approaching closed-lane remerging-lane left-exit"/>
    </vehicle>
    <vehicle id="L2-AV-55" type="L2-AV-" depart="341.00">
        <route edges="top-approaching bottom-exit"/>
    </vehicle>
    <vehicle id="L2-AV-56" type="L2-AV-" depart="347.20">
        <route edges="bottom-approaching right-exit"/>
    </vehicle>
    <vehicle id="L2-AV-57" type="L2-AV-Right-" depart="353.40">
        <route edges="left-long-approaching preparation left-short-approaching bottom-exit"/>
    </vehicle>
    <vehicle id="L2-AV-58" type="L2-AV-" depart="359.60">
        <route edges="top-approaching bottom-exit"/>
    </vehicle>
    <vehicle id="L2-AV-59" type="L2-AV-" depart="365.80">
        <route edges="bottom-approaching closed-lane remerging-lane left-exit"/>
    </vehicle>
    <vehicle id="L2-AV-61" type="L2-AV-" depart="378.20">
        <route edges="bottom-approaching closed-lane remerging-lane left-exit"/>
    </vehicle>
    <vehicle id="L2-AV-62" type="L2-AV-" depart="384.40">
        <route edges="bottom-approaching closed-lane remerging-lane left-exit"/>
    </vehicle>
    <vehicle id="L2-AV-63" type="L2-AV-" depart="390.60">
        <route edges="top-approaching right-exit"/>
    </vehicle>
    <vehicle id="L2-AV-65" type="L2-AV-" depart="403.00">
        <route edges="top-approaching right-exit"/>
    </vehicle>
    <vehicle id="L2-AV-66" type="L2-AV-Right-" depart="409.20">
        <route edges="left-long-approaching preparation left-short-approaching bottom-exit"/>
    </vehicle>
    <vehicle id="L2-AV-67" type="L2-AV-" depart="415.40">
        <route edges="right-approaching closed-lane remerging-lane left-exit"/>
    </vehicle>
    <vehicle id="L2-AV-68" type="L2-AV-" depart="421.60">
        <route edges="bottom-approaching closed-lane remerging-lane left-exit"/>
    </vehicle>
    <vehicle id="L2-AV-69" type="L2-AV-" depart="427.80">
        <route edges="top-approaching bottom-exit"/>
    </vehicle>
    <vehicle id="L2-AV-70" type="L2-AV-" depart="434.00">
        <route edges="right-approaching closed-lane remerging-lane left-exit"/>
    </vehicle>
    <vehicle id="L2-AV-71" type="L2-AV-" depart="440.20">
        <route edges="right-approaching bottom-exit"/>
    </vehicle>
    <vehicle id="L2-AV-72" type="L2-AV-" depart="446.40">
        <route edges="top-approaching closed-lane remerging-lane left-exit"/>
    </vehicle>
    <vehicle id="L2-AV-73" type="L2-AV-" depart="452.60">
        <route edges="right-approaching closed-lane remerging-lane left-exit"/>
    </vehicle>
    <vehicle id="L2-AV-74" type="L2-AV-" depart="458.80">
        <route edges="bottom-approaching right-exit"/>
    </vehicle>
    <vehicle id="L2-AV-77" type="L2-AV-" depart="477.40">
        <route edges="bottom-approaching right-exit"/>
    </vehicle>
    <vehicle id="L2-AV-78" type="L2-AV-" depart="483.60">
        <route edges="right-approaching top-exit"/>
    </vehicle>
    <vehicle id="L2-AV-80" type="L2-AV-" depart="496.00">
        <route edges="bottom-approaching closed-lane remerging-lane left-exit"/>
    </vehicle>
    <vehicle id="L2-AV-81" type="L2-AV-" depart="502.20">
        <route edges="left-long-approaching preparation left-short-approaching right-exit"/>
    </vehicle>
    <vehicle id="L2-AV-82" type="L2-AV-" depart="508.40">
        <route edges="right-approaching top-exit"/>
    </vehicle>
    <vehicle id="L2-AV-83" type="L2-AV-" depart="514.60">
        <route edges="right-approaching closed-lane remerging-lane left-exit"/>
    </vehicle>
    <vehicle id="L2-AV-84" type="L2-AV-" depart="520.80">
        <route edges="left-long-approaching preparation left-short-approaching right-exit"/>
    </vehicle>
    <vehicle id="L2-AV-86" type="L2-AV-Right-" depart="533.20">
        <route edges="left-long-approaching preparation left-short-approaching bottom-exit"/>
    </vehicle>
    <vehicle id="L2-AV-87" type="L2-AV-" depart="539.40">
        <route edges="right-approaching bottom-exit"/>
    </vehicle>
    <vehicle id="L2-AV-90" type="L2-AV-" depart="558.00">
        <route edges="right-approaching closed-lane remerging-lane left-exit"/>
    </vehicle>
    <vehicle id="L2-AV-91" type="L2-AV-" depart="564.20">
        <route edges="left-long-approaching preparation left-short-approaching right-exit"/>
    </vehicle>
    <vehicle id="L2-AV-92" type="L2-AV-" depart="570.40">
        <route edges="bottom-approaching top-exit"/>
    </vehicle>
    <vehicle id="L2-AV-93" type="L2-AV-" depart="576.60">
        <route edges="top-approaching right-exit"/>
    </vehicle>
    <vehicle id="L2-AV-94" type="L2-AV-" depart="582.80">
        <route edges="left-long-approaching preparation left-short-approaching right-exit"/>
    </vehicle>
    <vehicle id="L2-AV-95" type="L2-AV-" depart="589.00">
        <route edges="right-approaching bottom-exit"/>
    </vehicle>
    <vehicle id="L2-AV-96" type="L2-AV-" depart="595.20">
        <route edges="left-long-approaching preparation left-short-approaching right-exit"/>
    </vehicle>
    <vehicle id="L2-AV-98" type="L2-AV-" depart="607.60">
        <route edges="top-approaching closed-lane remerging-lane left-exit"/>
    </vehicle>
    <vehicle id="L2-AV-99" type="L2-AV-" depart="613.80">
        <route edges="right-approaching top-exit"/>
    </vehicle>
    <vehicle id="L2-AV-100" type="L2-AV-" depart="620.00">
        <route edges="right-approaching closed-lane remerging-lane left-exit"/>
    </vehicle>
    <vehicle id="L2-AV-101" type="L2-AV-" depart="626.20">
        <route edges="top-approaching closed-lane remerging-lane left-exit"/>
    </vehicle>
    <vehicle id="L2-AV-102" type="L2-AV-" depart="632.40">
        <route edges="bottom-approaching right-exit"/>
    </vehicle>
    <vehicle id="L2-AV-103" type="L2-AV-" depart="638.60">
        <route edges="bottom-approaching closed-lane remerging-lane left-exit"/>
    </vehicle>
    <vehicle id="L2-AV-104" type="L2-AV-" depart="644.80">
        <route edges="top-approaching right-exit"/>
    </vehicle>
    <vehicle id="L2-AV-105" type="L2-AV-" depart="651.00">
        <route edges="bottom-approaching closed-lane remerging-lane left-exit"/>
    </vehicle>
    <vehicle id="L2-AV-107" type="L2-AV-" depart="663.40">
        <route edges="bottom-approaching right-exit"/>
    </vehicle>
    <vehicle id="L2-AV-108" type="L2-AV-" depart="669.60">
        <route edges="bottom-approaching closed-lane remerging-lane left-exit"/>
    </vehicle>
    <vehicle id="L2-AV-109" type="L2-AV-Left-" depart="675.80">
        <route edges="left-long-approaching preparation"/>
    </vehicle>
    <vehicle id="L2-AV-110" type="L2-AV-" depart="682.00">
        <route edges="bottom-approaching top-exit"/>
    </vehicle>
    <vehicle id="L2-AV-111" type="L2-AV-" depart="688.20">
        <route edges="bottom-approaching right-exit"/>
    </vehicle>
    <vehicle id="L2-AV-113" type="L2-AV-" depart="700.60">
        <route edges="top-approaching closed-lane remerging-lane left-exit"/>
    </vehicle>
    <vehicle id="L2-AV-115" type="L2-AV-" depart="713.00">
        <route edges="bottom-approaching top-exit"/>
    </vehicle>
    <vehicle id="L2-AV-116" type="L2-AV-" depart="719.20">
        <route edges="right-approaching top-exit"/>
    </vehicle>
    <vehicle id="L2-AV-117" type="L2-AV-" depart="725.40">
        <route edges="right-approaching bottom-exit"/>
    </vehicle>
    <vehicle id="L2-AV-118" type="L2-AV-" depart="731.60">
        <route edges="right-approaching top-exit"/>
    </vehicle>
    <vehicle id="L2-AV-121" type="L2-AV-" depart="750.20">
        <route edges="top-approaching closed-lane remerging-lane left-exit"/>
    </vehicle>
    <vehicle id="L2-AV-122" type="L2-AV-" depart="756.40">
        <route edges="right-approaching closed-lane remerging-lane left-exit"/>
    </vehicle>
    <vehicle id="L2-AV-125" type="L2-AV-Right-" depart="775.00">
        <route edges="left-long-approaching preparation left-short-approaching bottom-exit"/>
    </vehicle>
    <vehicle id="L2-AV-127" type="L2-AV-" depart="787.40">
        <route edges="left-long-approaching preparation left-short-approaching right-exit"/>
    </vehicle>
    <vehicle id="L2-AV-128" type="L2-AV-" depart="793.60">
        <route edges="top-approaching right-exit"/>
    </vehicle>
    <vehicle id="L2-AV-129" type="L2-AV-" depart="799.80">
        <route edges="top-approaching bottom-exit"/>
    </vehicle>
    <vehicle id="L2-AV-130" type="L2-AV-Left-" depart="806.00">
        <route edges="left-long-approaching preparation"/>
    </vehicle>
    <vehicle id="L2-AV-131" type="L2-AV-" depart="812.20">
        <route edges="bottom-approaching closed-lane remerging-lane left-exit"/>
    </vehicle>
    <vehicle id="L2-AV-134" type="L2-AV-" depart="830.80">
        <route edges="right-approaching bottom-exit"/>
    </vehicle>
    <vehicle id="L2-AV-135" type="L2-AV-Right-" depart="837.00">
        <route edges="left-long-approaching preparation left-short-approaching bottom-exit"/>
    </vehicle>
    <vehicle id="L2-AV-137" type="L2-AV-" depart="849.40">
        <route edges="left-long-approaching preparation left-short-approaching right-exit"/>
    </vehicle>
    <vehicle id="L2-AV-138" type="L2-AV-" depart="855.60">
        <route edges="bottom-approaching right-exit"/>
    </vehicle>
    <vehicle id="L2-AV-140" type="L2-AV-" depart="868.00">
        <route edges="bottom-approaching right-exit"/>
    </vehicle>
    <vehicle id="L2-AV-141" type="L2-AV-" depart="874.20">
        <route edges="right-approaching closed-lane remerging-lane left-exit"/>
    </vehicle>
    <vehicle id="L2-AV-142" type="L2-AV-" depart="880.40">
        <route edges="top-approaching closed-lane remerging-lane left-exit"/>
    </vehicle>
    <vehicle id="L2-AV-143" type="L2-AV-" depart="886.60">
        <route edges="right-approaching closed-lane remerging-lane left-exit"/>
    </vehicle>
    <vehicle id="L2-AV-145" type="L2-AV-" depart="899.00">
        <route edges="right-approaching bottom-exit"/>
    </vehicle>
    <vehicle id="L2-AV-146" type="L2-AV-Right-" depart="905.20">
        <route edges="left-long-approaching preparation left-short-approaching bottom-exit"/>
    </vehicle>
    <vehicle id="L2-AV-147" type="L2-AV-" depart="911.40">
        <route edges="right-approaching top-exit"/>
    </vehicle>
    <vehicle id="L2-AV-148" type="L2-AV-" depart="917.60">
        <route edges="bottom-approaching right-exit"/>
    </vehicle>
    <vehicle id="L2-AV-150" type="L2-AV-" depart="930.00">
        <route edges="right-approaching top-exit"/>
    </vehicle>
    <vehicle id="L2-AV-151" type="L2-AV-" depart="936.20">
        <route edges="right-approaching closed-lane remerging-lane left-exit"/>
    </vehicle>
    <vehicle id="L2-AV-152" type="L2-AV-" depart="942.40">
        <route edges="top-approaching closed-lane remerging-lane left-exit"/>
    </vehicle>
    <vehicle id="L2-AV-155" type="L2-AV-" depart="961.00">
        <route edges="bottom-approaching right-exit"/>
    </vehicle>
    <vehicle id="L2-AV-156" type="L2-AV-" depart="967.20">
        <route edges="left-long-approaching preparation left-short-approaching right-exit"/>
    </vehicle>
    <vehicle id="L2-AV-157" type="L2-AV-" depart="973.40">
        <route edges="top-approaching right-exit"/>
    </vehicle>
    <vehicle id="L2-AV-158" type="L2-AV-" depart="979.60">
        <route edges="bottom-approaching closed-lane remerging-lane left-exit"/>
    </vehicle>
    <vehicle id="L2-AV-159" type="L2-AV-" depart="985.80">
        <route edges="right-approaching top-exit"/>
    </vehicle>
    <vehicle id="L2-AV-160" type="L2-AV-" depart="992.00">
        <route edges="right-approaching top-exit"/>
    </vehicle>
    <vehicle id="L2-AV-161" type="L2-AV-" depart="998.20">
        <route edges="bottom-approaching top-exit"/>
    </vehicle>
    <vehicle id="L2-AV-164" type="L2-AV-" depart="1016.80">
        <route edges="bottom-approaching top-exit"/>
    </vehicle>
    <vehicle id="L2-AV-165" type="L2-AV-" depart="1023.00">
        <route edges="top-approaching bottom-exit"/>
    </vehicle>
    <vehicle id="L2-AV-167" type="L2-AV-" depart="1035.40">
        <route edges="bottom-approaching top-exit"/>
    </vehicle>
    <vehicle id="L2-AV-168" type="L2-AV-" depart="1041.60">
        <route edges="bottom-approaching right-exit"/>
    </vehicle>
    <vehicle id="L2-AV-170" type="L2-AV-" depart="1054.00">
        <route edges="right-approaching closed-lane remerging-lane left-exit"/>
    </vehicle>
    <vehicle id="L2-AV-171" type="L2-AV-" depart="1060.20">
        <route edges="bottom-approaching top-exit"/>
    </vehicle>
    <vehicle id="L2-AV-173" type="L2-AV-Left-" depart="1072.60">
        <route edges="left-long-approaching preparation"/>
    </vehicle>
    <vehicle id="L2-AV-174" type="L2-AV-" depart="1078.80">
        <route edges="right-approaching top-exit"/>
    </vehicle>
    <vehicle id="L2-AV-175" type="L2-AV-" depart="1085.00">
        <route edges="left-long-approaching preparation left-short-approaching right-exit"/>
    </vehicle>
    <vehicle id="L2-AV-177" type="L2-AV-Right-" depart="1097.40">
        <route edges="left-long-approaching preparation left-short-approaching bottom-exit"/>
    </vehicle>
    <vehicle id="L2-AV-178" type="L2-AV-" depart="1103.60">
        <route edges="bottom-approaching top-exit"/>
    </vehicle>
    <vehicle id="L2-AV-179" type="L2-AV-" depart="1109.80">
        <route edges="bottom-approaching right-exit"/>
    </vehicle>
    <vehicle id="L2-AV-180" type="L2-AV-" depart="1116.00">
        <route edges="top-approaching closed-lane remerging-lane left-exit"/>
    </vehicle>
    <vehicle id="L2-AV-181" type="L2-AV-" depart="1122.20">
        <route edges="right-approaching top-exit"/>
    </vehicle>
    <vehicle id="L2-AV-182" type="L2-AV-" depart="1128.40">
        <route edges="top-approaching bottom-exit"/>
    </vehicle>
    <vehicle id="L2-AV-183" type="L2-AV-" depart="1134.60">
        <route edges="bottom-approaching closed-lane remerging-lane left-exit"/>
    </vehicle>
    <vehicle id="L2-AV-185" type="L2-AV-" depart="1147.00">
        <route edges="bottom-approaching right-exit"/>
    </vehicle>
    <vehicle id="L2-AV-186" type="L2-AV-" depart="1153.20">
        <route edges="top-approaching closed-lane remerging-lane left-exit"/>
    </vehicle>
    <vehicle id="L2-AV-187" type="L2-AV-" depart="1159.40">
        <route edges="right-approaching closed-lane remerging-lane left-exit"/>
    </vehicle>
    <vehicle id="L2-AV-188" type="L2-AV-Left-" depart="1165.60">
        <route edges="left-long-approaching preparation"/>
    </vehicle>
    <vehicle id="L2-AV-189" type="L2-AV-" depart="1171.80">
        <route edges="left-long-approaching preparation left-short-approaching right-exit"/>
    </vehicle>
    <vehicle id="L2-AV-190" type="L2-AV-" depart="1178.00">
        <route edges="left-long-approaching preparation left-short-approaching right-exit"/>
    </vehicle>
    <vehicle id="L2-AV-191" type="L2-AV-" depart="1184.20">
        <route edges="top-approaching bottom-exit"/>
    </vehicle>
    <vehicle id="L2-AV-192" type="L2-AV-" depart="1190.40">
        <route edges="top-approaching closed-lane remerging-lane left-exit"/>
    </vehicle>
    <vehicle id="L2-AV-193" type="L2-AV-" depart="1196.60">
        <route edges="right-approaching top-exit"/>
    </vehicle>
    <vehicle id="L2-AV-194" type="L2-AV-" depart="1202.80">
        <route edges="right-approaching closed-lane remerging-lane left-exit"/>
    </vehicle>
    <vehicle id="L2-AV-195" type="L2-AV-" depart="1209.00">
        <route edges="top-approaching bottom-exit"/>
    </vehicle>
    <vehicle id="L2-AV-196" type="L2-AV-" depart="1215.20">
        <route edges="right-approaching closed-lane remerging-lane left-exit"/>
    </vehicle>
    <vehicle id="L2-AV-197" type="L2-AV-" depart="1221.40">
        <route edges="right-approaching top-exit"/>
    </vehicle>
    <vehicle id="L2-AV-198" type="L2-AV-" depart="1227.60">
        <route edges="top-approaching right-exit"/>
    </vehicle>
    <vehicle id="L2-AV-199" type="L2-AV-Right-" depart="1233.80">
        <route edges="left-long-approaching preparation left-short-approaching bottom-exit"/>
    </vehicle>
    <vehicle id="L2-AV-200" type="L2-AV-Right-" depart="1240.00">
        <route edges="left-long-approaching preparation left-short-approaching bottom-exit"/>
    </vehicle>
    <vehicle id="L2-AV-201" type="L2-AV-Left-" depart="1246.20">
        <route edges="left-long-approaching preparation"/>
    </vehicle>
    <vehicle id="L2-AV-202" type="L2-AV-" depart="1252.40">
        <route edges="bottom-approaching top-exit"/>
    </vehicle>
    <vehicle id="L2-AV-204" type="L2-AV-Right-" depart="1264.80">
        <route edges="left-long-approaching preparation left-short-approaching bottom-exit"/>
    </vehicle>
    <vehicle id="L2-AV-205" type="L2-AV-Right-" depart="1271.00">
        <route edges="left-long-approaching preparation left-short-approaching bottom-exit"/>
    </vehicle>
    <vehicle id="L2-AV-208" type="L2-AV-" depart="1289.60">
        <route edges="left-long-approaching preparation left-short-approaching right-exit"/>
    </vehicle>
    <vehicle id="L2-AV-209" type="L2-AV-" depart="1295.80">
        <route edges="top-approaching closed-lane remerging-lane left-exit"/>
    </vehicle>
    <vehicle id="L2-AV-211" type="L2-AV-" depart="1308.20">
        <route edges="bottom-approaching right-exit"/>
    </vehicle>
    <vehicle id="L2-AV-213" type="L2-AV-" depart="1320.60">
        <route edges="top-approaching bottom-exit"/>
    </vehicle>
    <vehicle id="L2-AV-214" type="L2-AV-" depart="1326.80">
        <route edges="top-approaching right-exit"/>
    </vehicle>
    <vehicle id="L2-AV-215" type="L2-AV-Left-" depart="1333.00">
        <route edges="left-long-approaching preparation"/>
    </vehicle>
    <vehicle id="L2-AV-216" type="L2-AV-Left-" depart="1339.20">
        <route edges="left-long-approaching preparation"/>
    </vehicle>
    <vehicle id="L2-AV-218" type="L2-AV-" depart="1351.60">
        <route edges="right-approaching top-exit"/>
    </vehicle>
    <vehicle id="L2-AV-222" type="L2-AV-" depart="1376.40">
        <route edges="left-long-approaching preparation left-short-approaching right-exit"/>
    </vehicle>
    <vehicle id="L2-AV-223" type="L2-AV-" depart="1382.60">
        <route edges="right-approaching closed-lane remerging-lane left-exit"/>
    </vehicle>
    <vehicle id="L2-AV-224" type="L2-AV-Right-" depart="1388.80">
        <route edges="left-long-approaching preparation left-short-approaching bottom-exit"/>
    </vehicle>
    <vehicle id="L2-AV-225" type="L2-AV-" depart="1395.00">
        <route edges="top-approaching closed-lane remerging-lane left-exit"/>
    </vehicle>
    <vehicle id="L2-AV-226" type="L2-AV-Left-" depart="1401.20">
        <route edges="left-long-approaching preparation"/>
    </vehicle>
    <vehicle id="L2-AV-227" type="L2-AV-" depart="1407.40">
        <route edges="bottom-approaching top-exit"/>
    </vehicle>
    <vehicle id="L2-AV-231" type="L2-AV-" depart="1432.20">
        <route edges="top-approaching closed-lane remerging-lane left-exit"/>
    </vehicle>
    <vehicle id="L2-AV-232" type="L2-AV-" depart="1438.40">
        <route edges="right-approaching bottom-exit"/>
    </vehicle>
    <vehicle id="L2-AV-233" type="L2-AV-" depart="1444.60">
        <route edges="top-approaching closed-lane remerging-lane left-exit"/>
    </vehicle>
    <vehicle id="L2-AV-234" type="L2-AV-" depart="1450.80">
        <route edges="left-long-approaching preparation left-short-approaching right-exit"/>
    </vehicle>
    <vehicle id="L2-AV-235" type="L2-AV-" depart="1457.00">
        <route edges="bottom-approaching closed-lane remerging-lane left-exit"/>
    </vehicle>
    <vehicle id="L2-AV-236" type="L2-AV-" depart="1463.20">
        <route edges="top-approaching bottom-exit"/>
    </vehicle>
    <vehicle id="L2-AV-241" type="L2-AV-" depart="1494.20">
        <route edges="right-approaching closed-lane remerging-lane left-exit"/>
    </vehicle>
    <vehicle id="L2-AV-242" type="L2-AV-Left-" depart="1500.40">
        <route edges="left-long-approaching preparation"/>
    </vehicle>
    <vehicle id="L2-AV-244" type="L2-AV-" depart="1512.80">
        <route edges="top-approaching closed-lane remerging-lane left-exit"/>
    </vehicle>
    <vehicle id="L2-AV-245" type="L2-AV-" depart="1519.00">
        <route edges="top-approaching bottom-exit"/>
    </vehicle>
    <vehicle id="L2-AV-246" type="L2-AV-" depart="1525.20">
        <route edges="right-approaching top-exit"/>
    </vehicle>
    <vehicle id="L2-AV-247" type="L2-AV-Left-" depart="1531.40">
        <route edges="left-long-approaching preparation"/>
    </vehicle>
    <vehicle id="L2-AV-248" type="L2-AV-" depart="1537.60">
        <route edges="right-approaching closed-lane remerging-lane left-exit"/>
    </vehicle>
    <vehicle id="L2-AV-249" type="L2-AV-" depart="1543.80">
        <route edges="top-approaching closed-lane remerging-lane left-exit"/>
    </vehicle>
    <vehicle id="L2-AV-250" type="L2-AV-" depart="1550.00">
        <route edges="left-long-approaching preparation left-short-approaching right-exit"/>
    </vehicle>
    <vehicle id="L2-AV-251" type="L2-AV-Left-" depart="1556.20">
        <route edges="left-long-approaching preparation"/>
    </vehicle>
    <vehicle id="L2-AV-253" type="L2-AV-" depart="1568.60">
        <route edges="right-approaching top-exit"/>
    </vehicle>
    <vehicle id="L2-AV-256" type="L2-AV-" depart="1587.20">
        <route edges="right-approaching bottom-exit"/>
    </vehicle>
    <vehicle id="L2-AV-257" type="L2-AV-" depart="1593.40">
        <route edges="bottom-approaching top-exit"/>
    </vehicle>
    <vehicle id="L2-AV-258" type="L2-AV-" depart="1599.60">
        <route edges="bottom-approaching top-exit"/>
    </vehicle>
    <vehicle id="L2-AV-259" type="L2-AV-" depart="1605.80">
        <route edges="right-approaching top-exit"/>
    </vehicle>
    <vehicle id="L2-AV-260" type="L2-AV-" depart="1612.00">
        <route edges="bottom-approaching closed-lane remerging-lane left-exit"/>
    </vehicle>
    <vehicle id="L2-AV-261" type="L2-AV-" depart="1618.20">
        <route edges="top-approaching bottom-exit"/>
    </vehicle>
    <vehicle id="L2-AV-262" type="L2-AV-" depart="1624.40">
        <route edges="bottom-approaching closed-lane remerging-lane left-exit"/>
    </vehicle>
    <vehicle id="L2-AV-264" type="L2-AV-" depart="1636.80">
        <route edges="right-approaching bottom-exit"/>
    </vehicle>
    <vehicle id="L2-AV-265" type="L2-AV-" depart="1643.00">
        <route edges="top-approaching right-exit"/>
    </vehicle>
    <vehicle id="L2-AV-266" type="L2-AV-" depart="1649.20">
        <route edges="bottom-approaching top-exit"/>
    </vehicle>
    <vehicle id="L2-AV-267" type="L2-AV-" depart="1655.40">
        <route edges="bottom-approaching closed-lane remerging-lane left-exit"/>
    </vehicle>
    <vehicle id="L2-AV-268" type="L2-AV-" depart="1661.60">
        <route edges="right-approaching bottom-exit"/>
    </vehicle>
    <vehicle id="L2-AV-269" type="L2-AV-Right-" depart="1667.80">
        <route edges="left-long-approaching preparation left-short-approaching bottom-exit"/>
    </vehicle>