<?xml version="1.0" ?><!-- generated on 03/21/21 23:44:18 by Eclipse SUMO duarouter Version 1.8.0
<configuration xmlns:xsi="http://www.w3.org/2001/XMLSchema-instance" xsi:noNamespaceSchemaLocation="http://sumo.dlr.de/xsd/duarouterConfiguration.xsd">

    <input>
        <net-file value="Roadworks/RoadworksIntersection.net.xml"/>
        <route-files value="trips.trips.xml"/>
    </input>

    <output>
        <output-file value="Roadworks/RealTMSPenetration1/Route-Files/L2-CV-Route.rou.xml"/>
        <alternatives-output value="Roadworks/RealTMSPenetration1/Route-Files/L2-CV-Route.rou.alt.xml"/>
    </output>

    <time>
        <begin value="0"/>
        <end value="3600"/>
    </time>

    <report>
        <no-warnings value="true"/>
        <ignore-errors value="true"/>
        <no-step-log value="true"/>
    </report>

</configuration>
--><routes xmlns:xsi="http://www.w3.org/2001/XMLSchema-instance" xsi:noNamespaceSchemaLocation="http://sumo.dlr.de/xsd/routes_file.xsd">
    <vehicle id="L2-CV-0" type="L2-CV-" depart="0.00">
        <route edges="bottom-approaching right-exit"/>
    </vehicle>
    <vehicle id="L2-CV-1" type="L2-CV-" depart="7.00">
        <route edges="left-long-approaching preparation left-short-approaching right-exit"/>
    </vehicle>
    <vehicle id="L2-CV-2" type="L2-CV-" depart="14.00">
        <route edges="right-approaching bottom-exit"/>
    </vehicle>
    <vehicle id="L2-CV-3" type="L2-CV-" depart="21.00">
        <route edges="bottom-approaching top-exit"/>
    </vehicle>
    <vehicle id="L2-CV-4" type="L2-CV-Right-" depart="28.00">
        <route edges="left-long-approaching preparation left-short-approaching bottom-exit"/>
    </vehicle>
    <vehicle id="L2-CV-5" type="L2-CV-" depart="35.00">
        <route edges="top-approaching closed-lane remerging-lane left-exit"/>
    </vehicle>
    <vehicle id="L2-CV-6" type="L2-CV-" depart="42.00">
        <route edges="top-approaching closed-lane remerging-lane left-exit"/>
    </vehicle>
    <vehicle id="L2-CV-7" type="L2-CV-" depart="49.00">
        <route edges="right-approaching bottom-exit"/>
    </vehicle>
    <vehicle id="L2-CV-8" type="L2-CV-" depart="56.00">
        <route edges="right-approaching top-exit"/>
    </vehicle>
    <vehicle id="L2-CV-10" type="L2-CV-" depart="70.00">
        <route edges="right-approaching bottom-exit"/>
    </vehicle>
    <vehicle id="L2-CV-11" type="L2-CV-" depart="77.00">
        <route edges="top-approaching right-exit"/>
    </vehicle>
    <vehicle id="L2-CV-12" type="L2-CV-Right-" depart="84.00">
        <route edges="left-long-approaching preparation left-short-approaching bottom-exit"/>
    </vehicle>
    <vehicle id="L2-CV-13" type="L2-CV-" depart="91.00">
        <route edges="top-approaching closed-lane remerging-lane left-exit"/>
    </vehicle>
    <vehicle id="L2-CV-14" type="L2-CV-" depart="98.00">
        <route edges="right-approaching top-exit"/>
    </vehicle>
    <vehicle id="L2-CV-15" type="L2-CV-" depart="105.00">
        <route edges="right-approaching top-exit"/>
    </vehicle>
    <vehicle id="L2-CV-16" type="L2-CV-Left-" depart="112.00">
        <route edges="left-long-approaching preparation"/>
    </vehicle>
    <vehicle id="L2-CV-17" type="L2-CV-Left-" depart="119.00">
        <route edges="left-long-approaching preparation"/>
    </vehicle>
    <vehicle id="L2-CV-18" type="L2-CV-" depart="126.00">
        <route edges="top-approaching bottom-exit"/>
    </vehicle>
    <vehicle id="L2-CV-20" type="L2-CV-" depart="140.00">
        <route edges="top-approaching closed-lane remerging-lane left-exit"/>
    </vehicle>
    <vehicle id="L2-CV-21" type="L2-CV-" depart="147.00">
        <route edges="right-approaching closed-lane remerging-lane left-exit"/>
    </vehicle>
    <vehicle id="L2-CV-22" type="L2-CV-" depart="154.00">
        <route edges="right-approaching closed-lane remerging-lane left-exit"/>
    </vehicle>
    <vehicle id="L2-CV-23" type="L2-CV-" depart="161.00">
        <route edges="left-long-approaching preparation left-short-approaching right-exit"/>
    </vehicle>
    <vehicle id="L2-CV-24" type="L2-CV-" depart="168.00">
        <route edges="right-approaching top-exit"/>
    </vehicle>
    <vehicle id="L2-CV-25" type="L2-CV-" depart="175.00">
        <route edges="right-approaching top-exit"/>
    </vehicle>
    <vehicle id="L2-CV-27" type="L2-CV-" depart="189.00">
        <route edges="right-approaching bottom-exit"/>
    </vehicle>
    <vehicle id="L2-CV-29" type="L2-CV-" depart="203.00">
        <route edges="top-approaching right-exit"/>
    </vehicle>
    <vehicle id="L2-CV-30" type="L2-CV-" depart="210.00">
        <route edges="right-approaching bottom-exit"/>
    </vehicle>
    <vehicle id="L2-CV-31" type="L2-CV-" depart="217.00">
        <route edges="top-approaching right-exit"/>
    </vehicle>
    <vehicle id="L2-CV-32" type="L2-CV-Right-" depart="224.00">
        <route edges="left-long-approaching preparation left-short-approaching bottom-exit"/>
    </vehicle>
    <vehicle id="L2-CV-34" type="L2-CV-" depart="238.00">
        <route edges="bottom-approaching top-exit"/>
    </vehicle>
    <vehicle id="L2-CV-35" type="L2-CV-Right-" depart="245.00">
        <route edges="left-long-approaching preparation left-short-approaching bottom-exit"/>
    </vehicle>
    <vehicle id="L2-CV-36" type="L2-CV-Left-" depart="252.00">
        <route edges="left-long-approaching preparation"/>
    </vehicle>
    <vehicle id="L2-CV-37" type="L2-CV-" depart="259.00">
        <route edges="top-approaching bottom-exit"/>
    </vehicle>
    <vehicle id="L2-CV-38" type="L2-CV-" depart="266.00">
        <route edges="right-approaching bottom-exit"/>
    </vehicle>
    <vehicle id="L2-CV-39" type="L2-CV-" depart="273.00">
        <route edges="right-approaching closed-lane remerging-lane left-exit"/>
    </vehicle>
    <vehicle id="L2-CV-41" type="L2-CV-" depart="287.00">
        <route edges="right-approaching top-exit"/>
    </vehicle>
    <vehicle id="L2-CV-42" type="L2-CV-Right-" depart="294.00">
        <route edges="left-long-approaching preparation left-short-approaching bottom-exit"/>
    </vehicle>
    <vehicle id="L2-CV-43" type="L2-CV-" depart="301.00">
        <route edges="right-approaching bottom-exit"/>
    </vehicle>
    <vehicle id="L2-CV-44" type="L2-CV-" depart="308.00">
        <route edges="bottom-approaching closed-lane remerging-lane left-exit"/>
    </vehicle>
    <vehicle id="L2-CV-45" type="L2-CV-" depart="315.00">
        <route edges="right-approaching bottom-exit"/>
    </vehicle>
    <vehicle id="L2-CV-46" type="L2-CV-" depart="322.00">
        <route edges="bottom-approaching top-exit"/>
    </vehicle>
    <vehicle id="L2-CV-47" type="L2-CV-Left-" depart="329.00">
        <route edges="left-long-approaching preparation"/>
    </vehicle>
    <vehicle id="L2-CV-48" type="L2-CV-" depart="336.00">
        <route edges="top-approaching closed-lane remerging-lane left-exit"/>
    </vehicle>
    <vehicle id="L2-CV-49" type="L2-CV-" depart="343.00">
        <route edges="left-long-approaching preparation left-short-approaching right-exit"/>
    </vehicle>
    <vehicle id="L2-CV-52" type="L2-CV-" depart="364.00">
        <route edges="top-approaching right-exit"/>
    </vehicle>
    <vehicle id="L2-CV-53" type="L2-CV-" depart="371.00">
        <route edges="left-long-approaching preparation left-short-approaching right-exit"/>
    </vehicle>
    <vehicle id="L2-CV-54" type="L2-CV-" depart="378.00">
        <route edges="bottom-approaching closed-lane remerging-lane left-exit"/>
    </vehicle>
    <vehicle id="L2-CV-55" type="L2-CV-" depart="385.00">
        <route edges="top-approaching right-exit"/>
    </vehicle>
    <vehicle id="L2-CV-56" type="L2-CV-" depart="392.00">
        <route edges="right-approaching bottom-exit"/>
    </vehicle>
    <vehicle id="L2-CV-57" type="L2-CV-" depart="399.00">
        <route edges="left-long-approaching preparation left-short-approaching right-exit"/>
    </vehicle>
    <vehicle id="L2-CV-58" type="L2-CV-" depart="406.00">
        <route edges="bottom-approaching right-exit"/>
    </vehicle>
    <vehicle id="L2-CV-59" type="L2-CV-" depart="413.00">
        <route edges="right-approaching bottom-exit"/>
    </vehicle>
    <vehicle id="L2-CV-60" type="L2-CV-" depart="420.00">
        <route edges="right-approaching closed-lane remerging-lane left-exit"/>
    </vehicle>
    <vehicle id="L2-CV-61" type="L2-CV-" depart="427.00">
        <route edges="right-approaching closed-lane remerging-lane left-exit"/>
    </vehicle>
    <vehicle id="L2-CV-64" type="L2-CV-" depart="448.00">
        <route edges="right-approaching top-exit"/>
    </vehicle>
    <vehicle id="L2-CV-66" type="L2-CV-" depart="462.00">
        <route edges="right-approaching closed-lane remerging-lane left-exit"/>
    </vehicle>
    <vehicle id="L2-CV-68" type="L2-CV-" depart="476.00">
        <route edges="left-long-approaching preparation left-short-approaching right-exit"/>
    </vehicle>
    <vehicle id="L2-CV-70" type="L2-CV-" depart="490.00">
        <route edges="top-approaching bottom-exit"/>
    </vehicle>
    <vehicle id="L2-CV-72" type="L2-CV-Right-" depart="504.00">
        <route edges="left-long-approaching preparation left-short-approaching bottom-exit"/>
    </vehicle>
    <vehicle id="L2-CV-73" type="L2-CV-" depart="511.00">
        <route edges="top-approaching bottom-exit"/>
    </vehicle>
    <vehicle id="L2-CV-74" type="L2-CV-" depart="518.00">
        <route edges="bottom-approaching closed-lane remerging-lane left-exit"/>
    </vehicle>
    <vehicle id="L2-CV-75" type="L2-CV-" depart="525.00">
        <route edges="right-approaching bottom-exit"/>
    </vehicle>
    <vehicle id="L2-CV-77" type="L2-CV-" depart="539.00">
        <route edges="top-approaching closed-lane remerging-lane left-exit"/>
    </vehicle>
    <vehicle id="L2-CV-78" type="L2-CV-" depart="546.00">
        <route edges="top-approaching bottom-exit"/>
    </vehicle>
    <vehicle id="L2-CV-79" type="L2-CV-" depart="553.00">
        <route edges="left-long-approaching preparation left-short-approaching right-exit"/>
    </vehicle>
    <vehicle id="L2-CV-80" type="L2-CV-" depart="560.00">
        <route edges="top-approaching closed-lane remerging-lane left-exit"/>
    </vehicle>
    <vehicle id="L2-CV-82" type="L2-CV-" depart="574.00">
        <route edges="right-approaching bottom-exit"/>
    </vehicle>
    <vehicle id="L2-CV-84" type="L2-CV-" depart="588.00">
        <route edges="bottom-approaching closed-lane remerging-lane left-exit"/>
    </vehicle>
    <vehicle id="L2-CV-85" type="L2-CV-" depart="595.00">
        <route edges="top-approaching right-exit"/>
    </vehicle>
    <vehicle id="L2-CV-86" type="L2-CV-" depart="602.00">
        <route edges="top-approaching closed-lane remerging-lane left-exit"/>
    </vehicle>
    <vehicle id="L2-CV-87" type="L2-CV-" depart="609.00">
        <route edges="bottom-approaching closed-lane remerging-lane left-exit"/>
    </vehicle>
    <vehicle id="L2-CV-88" type="L2-CV-" depart="616.00">
        <route edges="top-approaching closed-lane remerging-lane left-exit"/>
    </vehicle>
    <vehicle id="L2-CV-91" type="L2-CV-" depart="637.00">
        <route edges="top-approaching bottom-exit"/>
    </vehicle>
    <vehicle id="L2-CV-92" type="L2-CV-" depart="644.00">
        <route edges="bottom-approaching top-exit"/>
    </vehicle>
    <vehicle id="L2-CV-94" type="L2-CV-Left-" depart="658.00">
        <route edges="left-long-approaching preparation"/>
    </vehicle>
    <vehicle id="L2-CV-95" type="L2-CV-" depart="665.00">
        <route edges="top-approaching bottom-exit"/>
    </vehicle>
    <vehicle id="L2-CV-96" type="L2-CV-" depart="672.00">
        <route edges="right-approaching top-exit"/>
    </vehicle>
    <vehicle id="L2-CV-100" type="L2-CV-" depart="700.00">
        <route edges="right-approaching closed-lane remerging-lane left-exit"/>
    </vehicle>
    <vehicle id="L2-CV-101" type="L2-CV-" depart="707.00">
        <route edges="top-approaching bottom-exit"/>
    </vehicle>
    <vehicle id="L2-CV-102" type="L2-CV-" depart="714.00">
        <route edges="top-approaching right-exit"/>
    </vehicle>
    <vehicle id="L2-CV-104" type="L2-CV-" depart="728.00">
        <route edges="top-approaching right-exit"/>
    </vehicle>
    <vehicle id="L2-CV-105" type="L2-CV-" depart="735.00">
        <route edges="bottom-approaching right-exit"/>
    </vehicle>
    <vehicle id="L2-CV-106" type="L2-CV-" depart="742.00">
        <route edges="bottom-approaching closed-lane remerging-lane left-exit"/>
    </vehicle>
    <vehicle id="L2-CV-108" type="L2-CV-Left-" depart="756.00">
        <route edges="left-long-approaching preparation"/>
    </vehicle>
    <vehicle id="L2-CV-109" type="L2-CV-" depart="763.00">
        <route edges="right-approaching closed-lane remerging-lane left-exit"/>
    </vehicle>
    <vehicle id="L2-CV-110" type="L2-CV-Left-" depart="770.00">
        <route edges="left-long-approaching preparation"/>
    </vehicle>
    <vehicle id="L2-CV-111" type="L2-CV-Left-" depart="777.00">
        <route edges="left-long-approaching preparation"/>
    </vehicle>
    <vehicle id="L2-CV-112" type="L2-CV-Right-" depart="784.00">
        <route edges="left-long-approaching preparation left-short-approaching bottom-exit"/>
    </vehicle>
    <vehicle id="L2-CV-113" type="L2-CV-" depart="791.00">
        <route edges="right-approaching top-exit"/>
    </vehicle>
    <vehicle id="L2-CV-114" type="L2-CV-" depart="798.00">
        <route edges="bottom-approaching top-exit"/>
    </vehicle>
    <vehicle id="L2-CV-116" type="L2-CV-" depart="812.00">
        <route edges="top-approaching bottom-exit"/>
    </vehicle>
    <vehicle id="L2-CV-117" type="L2-CV-" depart="819.00">
        <route edges="right-approaching top-exit"/>
    </vehicle>
    <vehicle id="L2-CV-118" type="L2-CV-" depart="826.00">
        <route edges="bottom-approaching closed-lane remerging-lane left-exit"/>
    </vehicle>
    <vehicle id="L2-CV-119" type="L2-CV-" depart="833.00">
        <route edges="left-long-approaching preparation left-short-approaching right-exit"/>
    </vehicle>
    <vehicle id="L2-CV-121" type="L2-CV-" depart="847.00">
        <route edges="top-approaching bottom-exit"/>
    </vehicle>
    <vehicle id="L2-CV-127" type="L2-CV-" depart="889.00">
        <route edges="left-long-approaching preparation left-short-approaching right-exit"/>
    </vehicle>
    <vehicle id="L2-CV-128" type="L2-CV-" depart="896.00">
        <route edges="right-approaching closed-lane remerging-lane left-exit"/>
    </vehicle>
    <vehicle id="L2-CV-129" type="L2-CV-" depart="903.00">
        <route edges="bottom-approaching closed-lane remerging-lane left-exit"/>
    </vehicle>
    <vehicle id="L2-CV-130" type="L2-CV-" depart="910.00">
        <route edges="bottom-approaching right-exit"/>
    </vehicle>
    <vehicle id="L2-CV-131" type="L2-CV-" depart="917.00">
        <route edges="right-approaching closed-lane remerging-lane left-exit"/>
    </vehicle>
    <vehicle id="L2-CV-133" type="L2-CV-" depart="931.00">
        <route edges="left-long-approaching preparation left-short-approaching right-exit"/>
    </vehicle>
    <vehicle id="L2-CV-134" type="L2-CV-" depart="938.00">
        <route edges="top-approaching closed-lane remerging-lane left-exit"/>
    </vehicle>
    <vehicle id="L2-CV-135" type="L2-CV-" depart="945.00">
        <route edges="top-approaching right-exit"/>
    </vehicle>
    <vehicle id="L2-CV-137" type="L2-CV-" depart="959.00">
        <route edges="left-long-approaching preparation left-short-approaching right-exit"/>
    </vehicle>
    <vehicle id="L2-CV-138" type="L2-CV-" depart="966.00">
        <route edges="left-long-approaching preparation left-short-approaching right-exit"/>
    </vehicle>
    <vehicle id="L2-CV-139" type="L2-CV-Right-" depart="973.00">
        <route edges="left-long-approaching preparation left-short-approaching bottom-exit"/>
    </vehicle>
    <vehicle id="L2-CV-141" type="L2-CV-" depart="987.00">
        <route edges="bottom-approaching closed-lane remerging-lane left-exit"/>
    </vehicle>
    <vehicle id="L2-CV-142" type="L2-CV-Left-" depart="994.00">
        <route edges="left-long-approaching preparation"/>
    </vehicle>
    <vehicle id="L2-CV-143" type="L2-CV-" depart="1001.00">
        <route edges="top-approaching closed-lane remerging-lane left-exit"/>
    </vehicle>
    <vehicle id="L2-CV-146" type="L2-CV-" depart="1022.00">
        <route edges="bottom-approaching top-exit"/>
    </vehicle>
    <vehicle id="L2-CV-147" type="L2-CV-" depart="1029.00">
        <route edges="right-approaching top-exit"/>
    </vehicle>
    <vehicle id="L2-CV-148" type="L2-CV-" depart="1036.00">
        <route edges="top-approaching right-exit"/>
    </vehicle>
    <vehicle id="L2-CV-150" type="L2-CV-" depart="1050.00">
        <route edges="bottom-approaching right-exit"/>
    </vehicle>
    <vehicle id="L2-CV-152" type="L2-CV-" depart="1064.00">
        <route edges="top-approaching bottom-exit"/>
    </vehicle>
    <vehicle id="L2-CV-154" type="L2-CV-" depart="1078.00">
        <route edges="top-approaching bottom-exit"/>
    </vehicle>
    <vehicle id="L2-CV-155" type="L2-CV-" depart="1085.00">
        <route edges="bottom-approaching top-exit"/>
    </vehicle>
    <vehicle id="L2-CV-156" type="L2-CV-" depart="1092.00">
        <route edges="bottom-approaching top-exit"/>
    </vehicle>
    <vehicle id="L2-CV-157" type="L2-CV-" depart="1099.00">
        <route edges="right-approaching top-exit"/>
    </vehicle>
    <vehicle id="L2-CV-158" type="L2-CV-" depart="1106.00">
        <route edges="top-approaching right-exit"/>
    </vehicle>
    <vehicle id="L2-CV-159" type="L2-CV-" depart="1113.00">
        <route edges="top-approaching bottom-exit"/>
    </vehicle>
    <vehicle id="L2-CV-160" type="L2-CV-" depart="1120.00">
        <route edges="top-approaching right-exit"/>
    </vehicle>
    <vehicle id="L2-CV-161" type="L2-CV-" depart="1127.00">
        <route edges="right-approaching bottom-exit"/>
    </vehicle>
    <vehicle id="L2-CV-162" type="L2-CV-" depart="1134.00">
        <route edges="right-approaching top-exit"/>
    </vehicle>
    <vehicle id="L2-CV-163" type="L2-CV-" depart="1141.00">
        <route edges="bottom-approaching closed-lane remerging-lane left-exit"/>
    </vehicle>
    <vehicle id="L2-CV-164" type="L2-CV-" depart="1148.00">
        <route edges="right-approaching top-exit"/>
    </vehicle>
    <vehicle id="L2-CV-166" type="L2-CV-" depart="1162.00">
        <route edges="left-long-approaching preparation left-short-approaching right-exit"/>
    </vehicle>
    <vehicle id="L2-CV-167" type="L2-CV-" depart="1169.00">
        <route edges="top-approaching closed-lane remerging-lane left-exit"/>
    </vehicle>
    <vehicle id="L2-CV-171" type="L2-CV-" depart="1197.00">
        <route edges="top-approaching closed-lane remerging-lane left-exit"/>
    </vehicle>
    <vehicle id="L2-CV-172" type="L2-CV-" depart="1204.00">
        <route edges="right-approaching bottom-exit"/>
    </vehicle>
    <vehicle id="L2-CV-173" type="L2-CV-" depart="1211.00">
        <route edges="right-approaching top-exit"/>
    </vehicle>
    <vehicle id="L2-CV-175" type="L2-CV-" depart="1225.00">
        <route edges="left-long-approaching preparation left-short-approaching right-exit"/>
    </vehicle>
    <vehicle id="L2-CV-176" type="L2-CV-" depart="1232.00">
        <route edges="top-approaching bottom-exit"/>
    </vehicle>
    <vehicle id="L2-CV-177" type="L2-CV-" depart="1239.00">
        <route edges="bottom-approaching right-exit"/>
    </vehicle>
    <vehicle id="L2-CV-178" type="L2-CV-" depart="1246.00">
        <route edges="top-approaching right-exit"/>
    </vehicle>
    <vehicle id="L2-CV-179" type="L2-CV-" depart="1253.00">
        <route edges="left-long-approaching preparation left-short-approaching right-exit"/>
    </vehicle>
    <vehicle id="L2-CV-180" type="L2-CV-" depart="1260.00">
        <route edges="bottom-approaching closed-lane remerging-lane left-exit"/>
    </vehicle>
    <vehicle id="L2-CV-181" type="L2-CV-" depart="1267.00">
        <route edges="bottom-approaching right-exit"/>
    </vehicle>
    <vehicle id="L2-CV-182" type="L2-CV-Right-" depart="1274.00">
        <route edges="left-long-approaching preparation left-short-approaching bottom-exit"/>
    </vehicle>
    <vehicle id="L2-CV-183" type="L2-CV-" depart="1281.00">
        <route edges="right-approaching top-exit"/>
    </vehicle>
    <vehicle id="L2-CV-184" type="L2-CV-" depart="1288.00">
        <route edges="left-long-approaching preparation left-short-approaching right-exit"/>
    </vehicle>
    <vehicle id="L2-CV-185" type="L2-CV-Left-" depart="1295.00">
        <route edges="left-long-approaching preparation"/>
    </vehicle>
    <vehicle id="L2-CV-186" type="L2-CV-" depart="1302.00">
        <route edges="right-approaching closed-lane remerging-lane left-exit"/>
    </vehicle>
    <vehicle id="L2-CV-189" type="L2-CV-" depart="1323.00">
        <route edges="bottom-approaching closed-lane remerging-lane left-exit"/>
    </vehicle>
    <vehicle id="L2-CV-190" type="L2-CV-Left-" depart="1330.00">
        <route edges="left-long-approaching preparation"/>
    </vehicle>
    <vehicle id="L2-CV-191" type="L2-CV-" depart="1337.00">
        <route edges="bottom-approaching top-exit"/>
    </vehicle>
    <vehicle id="L2-CV-192" type="L2-CV-" depart="1344.00">
        <route edges="left-long-approaching preparation left-short-approaching right-exit"/>
    </vehicle>
    <vehicle id="L2-CV-193" type="L2-CV-Left-" depart="1351.00">
        <route edges="left-long-approaching preparation"/>
    </vehicle>
    <vehicle id="L2-CV-194" type="L2-CV-" depart="1358.00">
        <route edges="top-approaching right-exit"/>
    </vehicle>
    <vehicle id="L2-CV-195" type="L2-CV-" depart="1365.00">
        <route edges="left-long-approaching preparation left-short-approaching right-exit"/>
    </vehicle>
    <vehicle id="L2-CV-196" type="L2-CV-" depart="1372.00">
        <route edges="top-approaching closed-lane remerging-lane left-exit"/>
    </vehicle>
    <vehicle id="L2-CV-197" type="L2-CV-" depart="1379.00">
        <route edges="right-approaching top-exit"/>
    </vehicle>
    <vehicle id="L2-CV-198" type="L2-CV-Right-" depart="1386.00">
        <route edges="left-long-approaching preparation left-short-approaching bottom-exit"/>
    </vehicle>
    <vehicle id="L2-CV-199" type="L2-CV-" depart="1393.00">
        <route edges="bottom-approaching right-exit"/>
    </vehicle>
    <vehicle id="L2-CV-200" type="L2-CV-" depart="1400.00">
        <route edges="right-approaching top-exit"/>
    </vehicle>
    <vehicle id="L2-CV-201" type="L2-CV-" depart="1407.00">
        <route edges="top-approaching bottom-exit"/>
    </vehicle>
    <vehicle id="L2-CV-202" type="L2-CV-" depart="1414.00">
        <route edges="bottom-approaching closed-lane remerging-lane left-exit"/>
    </vehicle>
    <vehicle id="L2-CV-203" type="L2-CV-" depart="1421.00">
        <route edges="bottom-approaching right-exit"/>
    </vehicle>
    <vehicle id="L2-CV-205" type="L2-CV-Left-" depart="1435.00">
        <route edges="left-long-approaching preparation"/>
    </vehicle>
    <vehicle id="L2-CV-207" type="L2-CV-" depart="1449.00">
        <route edges="right-approaching bottom-exit"/>
    </vehicle>
    <vehicle id="L2-CV-208" type="L2-CV-" depart="1456.00">
        <route edges="bottom-approaching top-exit"/>
    </vehicle>
    <vehicle id="L2-CV-211" type="L2-CV-" depart="1477.00">
        <route edges="bottom-approaching closed-lane remerging-lane left-exit"/>
    </vehicle>
    <vehicle id="L2-CV-213" type="L2-CV-" depart="1491.00">
        <route edges="bottom-approaching right-exit"/>
    </vehicle>
    <vehicle id="L2-CV-214" type="L2-CV-" depart="1498.00">
        <route edges="top-approaching closed-lane remerging-lane left-exit"/>
    </vehicle>
    <vehicle id="L2-CV-215" type="L2-CV-" depart="1505.00">
        <route edges="right-approaching bottom-exit"/>
    </vehicle>
    <vehicle id="L2-CV-216" type="L2-CV-" depart="1512.00">
        <route edges="left-long-approaching preparation left-short-approaching right-exit"/>
    </vehicle>
    <vehicle id="L2-CV-217" type="L2-CV-" depart="1519.00">
        <route edges="bottom-approaching top-exit"/>
    </vehicle>
    <vehicle id="L2-CV-218" type="L2-CV-" depart="1526.00">
        <route edges="top-approaching bottom-exit"/>
    </vehicle>
    <vehicle id="L2-CV-219" type="L2-CV-" depart="1533.00">
        <route edges="top-approaching closed-lane remerging-lane left-exit"/>
    </vehicle>
    <vehicle id="L2-CV-221" type="L2-CV-" depart="1547.00">
        <route edges="left-long-approaching preparation left-short-approaching right-exit"/>
    </vehicle>
    <vehicle id="L2-CV-222" type="L2-CV-" depart="1554.00">
        <route edges="right-approaching top-exit"/>
    </vehicle>
    <vehicle id="L2-CV-223" type="L2-CV-Left-" depart="1561.00">
        <route edges="left-long-approaching preparation"/>
    </vehicle>
    <vehicle id="L2-CV-224" type="L2-CV-" depart="1568.00">
        <route edges="top-approaching right-exit"/>
    </vehicle>
    <vehicle id="L2-CV-225" type="L2-CV-" depart="1575.00">
        <route edges="right-approaching bottom-exit"/>
    </vehicle>
    <vehicle id="L2-CV-228" type="L2-CV-" depart="1596.00">
        <route edges="right-approaching bottom-exit"/>
    </vehicle>
    <vehicle id="L2-CV-230" type="L2-CV-" depart="1610.00">
        <route edges="bottom-approaching top-exit"/>
    </vehicle>
    <vehicle id="L2-CV-231" type="L2-CV-" depart="1617.00">
        <route edges="right-approaching bottom-exit"/>
    </vehicle>
    <vehicle id="L2-CV-232" type="L2-CV-" depart="1624.00">
        <route edges="top-approaching bottom-exit"/>
    </vehicle>
    <vehicle id="L2-CV-233" type="L2-CV-" depart="1631.00">
        <route edges="left-long-approaching preparation left-short-approaching right-exit"/>
    </vehicle>
    <vehicle id="L2-CV-235" type="L2-CV-" depart="1645.00">
        <route edges="right-approaching closed-lane remerging-lane left-exit"/>
    </vehicle>
    <vehicle id="L2-CV-236" type="L2-CV-Right-" depart="1652.00">
        <route edges="left-long-approaching preparation left-short-approaching bottom-exit"/>
    </vehicle>
    <vehicle id="L2-CV-237" type="L2-CV-" depart="1659.00">
        <route edges="bottom-approaching right-exit"/>
    </vehicle>
    <vehicle id="L2-CV-238" type="L2-CV-" depart="1666.00">
        <route edges="top-approaching right-exit"/>
    </vehicle>
    <vehicle id="L2-CV-239" type="L2-CV-" depart="1673.00">
        <route edges="right-approaching closed-lane remerging-lane left-exit"/>
    </vehicle>
    <vehicle id="L2-CV-241" type="L2-CV-" depart="1687.00">
        <route edges="top-approaching bottom-exit"/>
    </vehicle>
    <vehicle id="L2-CV-242" type="L2-CV-" depart="1694.00">
        <route edges="right-approaching bottom-exit"/>
    </vehicle>
    <vehicle id="L2-CV-243" type="L2-CV-" depart="1701.00">
        <route edges="top-approaching closed-lane remerging-lane left-exit"/>
    </vehicle>
    <vehicle id="L2-CV-245" type="L2-CV-" depart="1715.00">
        <route edges="right-approaching top-exit"/>
    </vehicle>
    <vehicle id="L2-CV-246" type="L2-CV-Left-" depart="1722.00">
        <route edges="left-long-approaching preparation"/>
    </vehicle>
    <vehicle id="L2-CV-247" type="L2-CV-" depart="1729.00">
        <route edges="bottom-approaching closed-lane remerging-lane left-exit"/>
    </vehicle>
    <vehicle id="L2-CV-249" type="L2-CV-" depart="1743.00">
        <route edges="top-approaching right-exit"/>
    </vehicle>
    <vehicle id="L2-CV-251" type="L2-CV-" depart="1757.00">
        <route edges="left-long-approaching preparation left-short-approaching right-exit"/>
    </vehicle>
    <vehicle id="L2-CV-252" type="L2-CV-" depart="1764.00">
        <route edges="top-approaching right-exit"/>
    </vehicle>
    <vehicle id="L2-CV-253" type="L2-CV-" depart="1771.00">
        <route edges="right-approaching bottom-exit"/>
    </vehicle>
    <vehicle id="L2-CV-254" type="L2-CV-Right-" depart="1778.00">
        <route edges="left-long-approaching preparation left-short-approaching bottom-exit"/>
    </vehicle>
    <vehicle id="L2-CV-256" type="L2-CV-" depart="1792.00">
        <route edges="bottom-approaching closed-lane remerging-lane left-exit"/>
    </vehicle>
    <vehicle id="L2-CV-257" type="L2-CV-" depart="1799.00">
        <route edges="top-approaching bottom-exit"/>
    </vehicle>
    <vehicle id="L2-CV-259" type="L2-CV-" depart="1813.00">
        <route edges="top-approaching closed-lane remerging-lane left-exit"/>
    </vehicle>
    <vehicle id="L2-CV-261" type="L2-CV-" depart="1827.00">
        <route edges="right-approaching top-exit"/>
    </vehicle>
    <vehicle id="L2-CV-262" type="L2-CV-" depart="1834.00">
        <route edges="right-approaching closed-lane remerging-lane left-exit"/>
    </vehicle>
    <vehicle id="L2-CV-263" type="L2-CV-" depart="1841.00">
        <route edges="top-approaching closed-lane remerging-lane left-exit"/>
    </vehicle>
    <vehicle id="L2-CV-265" type="L2-CV-" depart="1855.00">
        <route edges="bottom-approaching top-exit"/>
    </vehicle>
    <vehicle id="L2-CV-266" type="L2-CV-" depart="1862.00">
        <route edges="right-approaching closed-lane remerging-lane left-exit"/>
    </vehicle>
    <vehicle id="L2-CV-267" type="L2-CV-" depart="1869.00">
        <route edges="right-approaching closed-lane remerging-lane left-exit"/>
    </vehicle>
    <vehicle id="L2-CV-268" type="L2-CV-" depart="1876.00">
        <route edges="bottom-approaching right-exit"/>
    </vehicle>
    <vehicle id="L2-CV-270" type="L2-CV-" depart="1890.00">