<?xml version="1.0" ?><!-- generated on 03/21/21 23:44:17 by Eclipse SUMO duarouter Version 1.8.0
<configuration xmlns:xsi="http://www.w3.org/2001/XMLSchema-instance" xsi:noNamespaceSchemaLocation="http://sumo.dlr.de/xsd/duarouterConfiguration.xsd">

    <input>
        <net-file value="Roadworks/RoadworksIntersection.net.xml"/>
        <route-files value="trips.trips.xml"/>
    </input>

    <output>
        <output-file value="Roadworks/RealTMSPenetration1/Route-Files/L4-CV-Route.rou.xml"/>
        <alternatives-output value="Roadworks/RealTMSPenetration1/Route-Files/L4-CV-Route.rou.alt.xml"/>
    </output>

    <time>
        <begin value="0"/>
        <end value="3600"/>
    </time>

    <report>
        <no-warnings value="true"/>
        <ignore-errors value="true"/>
        <no-step-log value="true"/>
    </report>

</configuration>
--><routes xmlns:xsi="http://www.w3.org/2001/XMLSchema-instance" xsi:noNamespaceSchemaLocation="http://sumo.dlr.de/xsd/routes_file.xsd">
    <vehicle id="L4-CV-2" type="L4-CV-" depart="3.52">
        <route edges="right-approaching closed-lane remerging-lane left-exit"/>
    </vehicle>
    <vehicle id="L4-CV-3" type="L4-CV-" depart="5.28">
        <route edges="top-approaching closed-lane remerging-lane left-exit"/>
    </vehicle>
    <vehicle id="L4-CV-4" type="L4-CV-" depart="7.04">
        <route edges="left-long-approaching preparation left-short-approaching right-exit"/>
    </vehicle>
    <vehicle id="L4-CV-5" type="L4-CV-" depart="8.80">
        <route edges="top-approaching right-exit"/>
    </vehicle>
    <vehicle id="L4-CV-6" type="L4-CV-Left-" depart="10.56">
        <route edges="left-long-approaching preparation"/>
    </vehicle>
    <vehicle id="L4-CV-7" type="L4-CV-" depart="12.32">
        <route edges="right-approaching closed-lane remerging-lane left-exit"/>
    </vehicle>
    <vehicle id="L4-CV-10" type="L4-CV-" depart="17.60">
        <route edges="left-long-approaching preparation left-short-approaching right-exit"/>
    </vehicle>
    <vehicle id="L4-CV-11" type="L4-CV-" depart="19.36">
        <route edges="top-approaching right-exit"/>
    </vehicle>
    <vehicle id="L4-CV-12" type="L4-CV-Right-" depart="21.12">
        <route edges="left-long-approaching preparation left-short-approaching bottom-exit"/>
    </vehicle>
    <vehicle id="L4-CV-13" type="L4-CV-" depart="22.88">
        <route edges="left-long-approaching preparation left-short-approaching right-exit"/>
    </vehicle>
    <vehicle id="L4-CV-15" type="L4-CV-Left-" depart="26.40">
        <route edges="left-long-approaching preparation"/>
    </vehicle>
    <vehicle id="L4-CV-16" type="L4-CV-Left-" depart="28.16">
        <route edges="left-long-approaching preparation"/>
    </vehicle>
    <vehicle id="L4-CV-17" type="L4-CV-" depart="29.92">
        <route edges="right-approaching bottom-exit"/>
    </vehicle>
    <vehicle id="L4-CV-18" type="L4-CV-" depart="31.68">
        <route edges="right-approaching closed-lane remerging-lane left-exit"/>
    </vehicle>
    <vehicle id="L4-CV-19" type="L4-CV-" depart="33.44">
        <route edges="top-approaching right-exit"/>
    </vehicle>
    <vehicle id="L4-CV-20" type="L4-CV-" depart="35.20">
        <route edges="bottom-approaching closed-lane remerging-lane left-exit"/>
    </vehicle>
    <vehicle id="L4-CV-21" type="L4-CV-" depart="36.96">
        <route edges="top-approaching bottom-exit"/>
    </vehicle>
    <vehicle id="L4-CV-22" type="L4-CV-Left-" depart="38.72">
        <route edges="left-long-approaching preparation"/>
    </vehicle>
    <vehicle id="L4-CV-23" type="L4-CV-" depart="40.48">
        <route edges="bottom-approaching right-exit"/>
    </vehicle>
    <vehicle id="L4-CV-24" type="L4-CV-" depart="42.24">
        <route edges="bottom-approaching top-exit"/>
    </vehicle>
    <vehicle id="L4-CV-25" type="L4-CV-" depart="44.00">
        <route edges="top-approaching closed-lane remerging-lane left-exit"/>
    </vehicle>
    <vehicle id="L4-CV-26" type="L4-CV-" depart="45.76">
        <route edges="bottom-approaching closed-lane remerging-lane left-exit"/>
    </vehicle>
    <vehicle id="L4-CV-27" type="L4-CV-" depart="47.52">
        <route edges="right-approaching top-exit"/>
    </vehicle>
    <vehicle id="L4-CV-28" type="L4-CV-" depart="49.28">
        <route edges="bottom-approaching right-exit"/>
    </vehicle>
    <vehicle id="L4-CV-30" type="L4-CV-" depart="52.80">
        <route edges="top-approaching right-exit"/>
    </vehicle>
    <vehicle id="L4-CV-31" type="L4-CV-" depart="54.56">
        <route edges="top-approaching right-exit"/>
    </vehicle>
    <vehicle id="L4-CV-32" type="L4-CV-" depart="56.32">
        <route edges="right-approaching closed-lane remerging-lane left-exit"/>
    </vehicle>
    <vehicle id="L4-CV-33" type="L4-CV-" depart="58.08">
        <route edges="right-approaching closed-lane remerging-lane left-exit"/>
    </vehicle>
    <vehicle id="L4-CV-34" type="L4-CV-" depart="59.84">
        <route edges="right-approaching closed-lane remerging-lane left-exit"/>
    </vehicle>
    <vehicle id="L4-CV-37" type="L4-CV-Right-" depart="65.12">
        <route edges="left-long-approaching preparation left-short-approaching bottom-exit"/>
    </vehicle>
    <vehicle id="L4-CV-41" type="L4-CV-" depart="72.16">
        <route edges="right-approaching closed-lane remerging-lane left-exit"/>
    </vehicle>
    <vehicle id="L4-CV-42" type="L4-CV-" depart="73.92">
        <route edges="right-approaching closed-lane remerging-lane left-exit"/>
    </vehicle>
    <vehicle id="L4-CV-44" type="L4-CV-" depart="77.44">
        <route edges="top-approaching right-exit"/>
    </vehicle>
    <vehicle id="L4-CV-45" type="L4-CV-" depart="79.20">
        <route edges="top-approaching right-exit"/>
    </vehicle>
    <vehicle id="L4-CV-46" type="L4-CV-" depart="80.96">
        <route edges="left-long-approaching preparation left-short-approaching right-exit"/>
    </vehicle>
    <vehicle id="L4-CV-48" type="L4-CV-" depart="84.48">
        <route edges="top-approaching bottom-exit"/>
    </vehicle>
    <vehicle id="L4-CV-49" type="L4-CV-" depart="86.24">
        <route edges="right-approaching closed-lane remerging-lane left-exit"/>
    </vehicle>
    <vehicle id="L4-CV-50" type="L4-CV-" depart="88.00">
        <route edges="right-approaching top-exit"/>
    </vehicle>
    <vehicle id="L4-CV-51" type="L4-CV-" depart="89.76">
        <route edges="bottom-approaching right-exit"/>
    </vehicle>
    <vehicle id="L4-CV-53" type="L4-CV-" depart="93.28">
        <route edges="top-approaching closed-lane remerging-lane left-exit"/>
    </vehicle>
    <vehicle id="L4-CV-54" type="L4-CV-" depart="95.04">
        <route edges="top-approaching bottom-exit"/>
    </vehicle>
    <vehicle id="L4-CV-55" type="L4-CV-" depart="96.80">
        <route edges="bottom-approaching right-exit"/>
    </vehicle>
    <vehicle id="L4-CV-56" type="L4-CV-" depart="98.56">
        <route edges="bottom-approaching right-exit"/>
    </vehicle>
    <vehicle id="L4-CV-57" type="L4-CV-" depart="100.32">
        <route edges="top-approaching right-exit"/>
    </vehicle>
    <vehicle id="L4-CV-58" type="L4-CV-" depart="102.08">
        <route edges="right-approaching bottom-exit"/>
    </vehicle>
    <vehicle id="L4-CV-60" type="L4-CV-" depart="105.60">
        <route edges="right-approaching closed-lane remerging-lane left-exit"/>
    </vehicle>
    <vehicle id="L4-CV-61" type="L4-CV-Left-" depart="107.36">
        <route edges="left-long-approaching preparation"/>
    </vehicle>
    <vehicle id="L4-CV-63" type="L4-CV-" depart="110.88">
        <route edges="top-approaching bottom-exit"/>
    </vehicle>
    <vehicle id="L4-CV-66" type="L4-CV-" depart="116.16">
        <route edges="bottom-approaching closed-lane remerging-lane left-exit"/>
    </vehicle>
    <vehicle id="L4-CV-67" type="L4-CV-" depart="117.92">
        <route edges="bottom-approaching closed-lane remerging-lane left-exit"/>
    </vehicle>
    <vehicle id="L4-CV-68" type="L4-CV-" depart="119.68">
        <route edges="bottom-approaching right-exit"/>
    </vehicle>
    <vehicle id="L4-CV-69" type="L4-CV-Right-" depart="121.44">
        <route edges="left-long-approaching preparation left-short-approaching bottom-exit"/>
    </vehicle>
    <vehicle id="L4-CV-70" type="L4-CV-Right-" depart="123.20">
        <route edges="left-long-approaching preparation left-short-approaching bottom-exit"/>
    </vehicle>
    <vehicle id="L4-CV-71" type="L4-CV-" depart="124.96">
        <route edges="bottom-approaching top-exit"/>
    </vehicle>
    <vehicle id="L4-CV-72" type="L4-CV-" depart="126.72">
        <route edges="bottom-approaching closed-lane remerging-lane left-exit"/>
    </vehicle>
    <vehicle id="L4-CV-73" type="L4-CV-" depart="128.48">
        <route edges="right-approaching top-exit"/>
    </vehicle>
    <vehicle id="L4-CV-74" type="L4-CV-" depart="130.24">
        <route edges="top-approaching bottom-exit"/>
    </vehicle>
    <vehicle id="L4-CV-75" type="L4-CV-" depart="132.00">
        <route edges="right-approaching top-exit"/>
    </vehicle>
    <vehicle id="L4-CV-76" type="L4-CV-" depart="133.76">
        <route edges="bottom-approaching right-exit"/>
    </vehicle>
    <vehicle id="L4-CV-77" type="L4-CV-" depart="135.52">
        <route edges="top-approaching closed-lane remerging-lane left-exit"/>
    </vehicle>
    <vehicle id="L4-CV-78" type="L4-CV-" depart="137.28">
        <route edges="left-long-approaching preparation left-short-approaching right-exit"/>
    </vehicle>
    <vehicle id="L4-CV-79" type="L4-CV-Right-" depart="139.04">
        <route edges="left-long-approaching preparation left-short-approaching bottom-exit"/>
    </vehicle>
    <vehicle id="L4-CV-83" type="L4-CV-" depart="146.08">
        <route edges="top-approaching closed-lane remerging-lane left-exit"/>
    </vehicle>
    <vehicle id="L4-CV-84" type="L4-CV-" depart="147.84">
        <route edges="right-approaching bottom-exit"/>
    </vehicle>
    <vehicle id="L4-CV-85" type="L4-CV-" depart="149.60">
        <route edges="right-approaching closed-lane remerging-lane left-exit"/>
    </vehicle>
    <vehicle id="L4-CV-86" type="L4-CV-" depart="151.36">
        <route edges="bottom-approaching closed-lane remerging-lane left-exit"/>
    </vehicle>
    <vehicle id="L4-CV-87" type="L4-CV-" depart="153.12">
        <route edges="bottom-approaching top-exit"/>
    </vehicle>
    <vehicle id="L4-CV-89" type="L4-CV-Left-" depart="156.64">
        <route edges="left-long-approaching preparation"/>
    </vehicle>
    <vehicle id="L4-CV-91" type="L4-CV-" depart="160.16">
        <route edges="right-approaching closed-lane remerging-lane left-exit"/>
    </vehicle>
    <vehicle id="L4-CV-92" type="L4-CV-" depart="161.92">
        <route edges="left-long-approaching preparation left-short-approaching right-exit"/>
    </vehicle>
    <vehicle id="L4-CV-94" type="L4-CV-Right-" depart="165.44">
        <route edges="left-long-approaching preparation left-short-approaching bottom-exit"/>
    </vehicle>
    <vehicle id="L4-CV-95" type="L4-CV-" depart="167.20">
        <route edges="right-approaching closed-lane remerging-lane left-exit"/>
    </vehicle>
    <vehicle id="L4-CV-96" type="L4-CV-" depart="168.96">
        <route edges="top-approaching right-exit"/>
    </vehicle>
    <vehicle id="L4-CV-98" type="L4-CV-" depart="172.48">
        <route edges="right-approaching closed-lane remerging-lane left-exit"/>
    </vehicle>
    <vehicle id="L4-CV-99" type="L4-CV-" depart="174.24">
        <route edges="right-approaching bottom-exit"/>
    </vehicle>
    <vehicle id="L4-CV-101" type="L4-CV-" depart="177.76">
        <route edges="bottom-approaching right-exit"/>
    </vehicle>
    <vehicle id="L4-CV-102" type="L4-CV-" depart="179.52">
        <route edges="left-long-approaching preparation left-short-approaching right-exit"/>
    </vehicle>
    <vehicle id="L4-CV-105" type="L4-CV-Left-" depart="184.80">
        <route edges="left-long-approaching preparation"/>
    </vehicle>
    <vehicle id="L4-CV-107" type="L4-CV-" depart="188.32">
        <route edges="bottom-approaching top-exit"/>
    </vehicle>
    <vehicle id="L4-CV-108" type="L4-CV-" depart="190.08">
        <route edges="right-approaching bottom-exit"/>
    </vehicle>
    <vehicle id="L4-CV-109" type="L4-CV-" depart="191.84">
        <route edges="right-approaching top-exit"/>
    </vehicle>
    <vehicle id="L4-CV-110" type="L4-CV-" depart="193.60">
        <route edges="left-long-approaching preparation left-short-approaching right-exit"/>
    </vehicle>
    <vehicle id="L4-CV-111" type="L4-CV-Right-" depart="195.36">
        <route edges="left-long-approaching preparation left-short-approaching bottom-exit"/>
    </vehicle>
    <vehicle id="L4-CV-112" type="L4-CV-" depart="197.12">
        <route edges="right-approaching bottom-exit"/>
    </vehicle>
    <vehicle id="L4-CV-113" type="L4-CV-" depart="198.88">
        <route edges="top-approaching right-exit"/>
    </vehicle>
    <vehicle id="L4-CV-115" type="L4-CV-" depart="202.40">
        <route edges="right-approaching top-exit"/>
    </vehicle>
    <vehicle id="L4-CV-116" type="L4-CV-Left-" depart="204.16">
        <route edges="left-long-approaching preparation"/>
    </vehicle>
    <vehicle id="L4-CV-117" type="L4-CV-" depart="205.92">
        <route edges="bottom-approaching top-exit"/>
    </vehicle>
    <vehicle id="L4-CV-118" type="L4-CV-Right-" depart="207.68">
        <route edges="left-long-approaching preparation left-short-approaching bottom-exit"/>
    </vehicle>
    <vehicle id="L4-CV-121" type="L4-CV-" depart="212.96">
        <route edges="bottom-approaching right-exit"/>
    </vehicle>
    <vehicle id="L4-CV-122" type="L4-CV-" depart="214.72">
        <route edges="right-approaching closed-lane remerging-lane left-exit"/>
    </vehicle>
    <vehicle id="L4-CV-123" type="L4-CV-" depart="216.48">
        <route edges="top-approaching closed-lane remerging-lane left-exit"/>
    </vehicle>
    <vehicle id="L4-CV-127" type="L4-CV-" depart="223.52">
        <route edges="top-approaching bottom-exit"/>
    </vehicle>
    <vehicle id="L4-CV-130" type="L4-CV-" depart="228.80">
        <route edges="top-approaching right-exit"/>
    </vehicle>
    <vehicle id="L4-CV-131" type="L4-CV-" depart="230.56">
        <route edges="left-long-approaching preparation left-short-approaching right-exit"/>
    </vehicle>
    <vehicle id="L4-CV-132" type="L4-CV-" depart="232.32">
        <route edges="bottom-approaching right-exit"/>
    </vehicle>
    <vehicle id="L4-CV-134" type="L4-CV-Left-" depart="235.84">
        <route edges="left-long-approaching preparation"/>
    </vehicle>
    <vehicle id="L4-CV-135" type="L4-CV-" depart="237.60">
        <route edges="right-approaching closed-lane remerging-lane left-exit"/>
    </vehicle>
    <vehicle id="L4-CV-136" type="L4-CV-" depart="239.36">
        <route edges="right-approaching bottom-exit"/>
    </vehicle>
    <vehicle id="L4-CV-137" type="L4-CV-" depart="241.12">
        <route edges="bottom-approaching top-exit"/>
    </vehicle>
    <vehicle id="L4-CV-139" type="L4-CV-" depart="244.64">
        <route edges="right-approaching closed-lane remerging-lane left-exit"/>
    </vehicle>
    <vehicle id="L4-CV-140" type="L4-CV-Right-" depart="246.40">
        <route edges="left-long-approaching preparation left-short-approaching bottom-exit"/>
    </vehicle>
    <vehicle id="L4-CV-142" type="L4-CV-" depart="249.92">
        <route edges="right-approaching bottom-exit"/>
    </vehicle>
    <vehicle id="L4-CV-144" type="L4-CV-Right-" depart="253.44">
        <route edges="left-long-approaching preparation left-short-approaching bottom-exit"/>
    </vehicle>
    <vehicle id="L4-CV-145" type="L4-CV-" depart="255.20">
        <route edges="top-approaching closed-lane remerging-lane left-exit"/>
    </vehicle>
    <vehicle id="L4-CV-148" type="L4-CV-" depart="260.48">
        <route edges="right-approaching closed-lane remerging-lane left-exit"/>
    </vehicle>
    <vehicle id="L4-CV-149" type="L4-CV-" depart="262.24">
        <route edges="left-long-approaching preparation left-short-approaching right-exit"/>
    </vehicle>
    <vehicle id="L4-CV-151" type="L4-CV-" depart="265.76">
        <route edges="right-approaching closed-lane remerging-lane left-exit"/>
    </vehicle>
    <vehicle id="L4-CV-152" type="L4-CV-" depart="267.52">
        <route edges="top-approaching right-exit"/>
    </vehicle>
    <vehicle id="L4-CV-154" type="L4-CV-" depart="271.04">
        <route edges="right-approaching bottom-exit"/>
    </vehicle>
    <vehicle id="L4-CV-155" type="L4-CV-" depart="272.80">
        <route edges="bottom-approaching closed-lane remerging-lane left-exit"/>
    </vehicle>
    <vehicle id="L4-CV-156" type="L4-CV-" depart="274.56">
        <route edges="right-approaching closed-lane remerging-lane left-exit"/>
    </vehicle>
    <vehicle id="L4-CV-157" type="L4-CV-" depart="276.32">
        <route edges="left-long-approaching preparation left-short-approaching right-exit"/>
    </vehicle>
    <vehicle id="L4-CV-158" type="L4-CV-" depart="278.08">
        <route edges="right-approaching closed-lane remerging-lane left-exit"/>
    </vehicle>
    <vehicle id="L4-CV-159" type="L4-CV-Left-" depart="279.84">
        <route edges="left-long-approaching preparation"/>
    </vehicle>
    <vehicle id="L4-CV-160" type="L4-CV-Left-" depart="281.60">
        <route edges="left-long-approaching preparation"/>
    </vehicle>
    <vehicle id="L4-CV-162" type="L4-CV-" depart="285.12">
        <route edges="bottom-approaching top-exit"/>
    </vehicle>
    <vehicle id="L4-CV-163" type="L4-CV-" depart="286.88">
        <route edges="right-approaching top-exit"/>
    </vehicle>
    <vehicle id="L4-CV-164" type="L4-CV-" depart="288.64">
        <route edges="left-long-approaching preparation left-short-approaching right-exit"/>
    </vehicle>
    <vehicle id="L4-CV-165" type="L4-CV-" depart="290.40">
        <route edges="bottom-approaching closed-lane remerging-lane left-exit"/>
    </vehicle>
    <vehicle id="L4-CV-167" type="L4-CV-" depart="293.92">
        <route edges="top-approaching bottom-exit"/>
    </vehicle>
    <vehicle id="L4-CV-169" type="L4-CV-" depart="297.44">
        <route edges="left-long-approaching preparation left-short-approaching right-exit"/>
    </vehicle>
    <vehicle id="L4-CV-170" type="L4-CV-" depart="299.20">
        <route edges="bottom-approaching top-exit"/>
    </vehicle>
    <vehicle id="L4-CV-171" type="L4-CV-" depart="300.96">
        <route edges="top-approaching bottom-exit"/>
    </vehicle>
    <vehicle id="L4-CV-172" type="L4-CV-" depart="302.72">
        <route edges="left-long-approaching preparation left-short-approaching right-exit"/>
    </vehicle>
    <vehicle id="L4-CV-173" type="L4-CV-" depart="304.48">
        <route edges="top-approaching closed-lane remerging-lane left-exit"/>
    </vehicle>
    <vehicle id="L4-CV-174" type="L4-CV-" depart="306.24">
        <route edges="top-approaching closed-lane remerging-lane left-exit"/>
    </vehicle>
    <vehicle id="L4-CV-175" type="L4-CV-" depart="308.00">
        <route edges="left-long-approaching preparation"/>
    </vehicle>
    <vehicle id="L4-CV-176" type="L4-CV-" depart="309.76">
        <route edges="right-approaching bottom-exit"/>
    </vehicle>
    <vehicle id="L4-CV-177" type="L4-CV-" depart="311.52">
        <route edges="right-approaching bottom-exit"/>
    </vehicle>
    <vehicle id="L4-CV-178" type="L4-CV-Left-" depart="313.28">
        <route edges="left-long-approaching preparation"/>
    </vehicle>
    <vehicle id="L4-CV-181" type="L4-CV-Left-" depart="318.56">
        <route edges="left-long-approaching preparation"/>
    </vehicle>
    <vehicle id="L4-CV-182" type="L4-CV-" depart="320.32">
        <route edges="top-approaching right-exit"/>
    </vehicle>
    <vehicle id="L4-CV-183" type="L4-CV-" depart="322.08">
        <route edges="right-approaching top-exit"/>
    </vehicle>
    <vehicle id="L4-CV-185" type="L4-CV-" depart="325.60">
        <route edges="top-approaching bottom-exit"/>
    </vehicle>
    <vehicle id="L4-CV-187" type="L4-CV-" depart="329.12">
        <route edges="bottom-approaching top-exit"/>
    </vehicle>
    <vehicle id="L4-CV-188" type="L4-CV-Right-" depart="330.88">
        <route edges="left-long-approaching preparation left-short-approaching bottom-exit"/>
    </vehicle>
    <vehicle id="L4-CV-189" type="L4-CV-" depart="332.64">
        <route edges="bottom-approaching right-exit"/>
    </vehicle>
    <vehicle id="L4-CV-190" type="L4-CV-" depart="334.40">
        <route edges="top-approaching right-exit"/>
    </vehicle>
    <vehicle id="L4-CV-194" type="L4-CV-" depart="341.44">
        <route edges="top-approaching right-exit"/>
    </vehicle>
    <vehicle id="L4-CV-195" type="L4-CV-" depart="343.20">
        <route edges="top-approaching bottom-exit"/>
    </vehicle>
    <vehicle id="L4-CV-197" type="L4-CV-" depart="346.72">
        <route edges="top-approaching closed-lane remerging-lane left-exit"/>
    </vehicle>
    <vehicle id="L4-CV-198" type="L4-CV-" depart="348.48">
        <route edges="top-approaching closed-lane remerging-lane left-exit"/>
    </vehicle>
    <vehicle id="L4-CV-199" type="L4-CV-" depart="350.24">
        <route edges="right-approaching top-exit"/>
    </vehicle>
    <vehicle id="L4-CV-200" type="L4-CV-" depart="352.00">
        <route edges="top-approaching right-exit"/>
    </vehicle>
    <vehicle id="L4-CV-202" type="L4-CV-" depart="355.52">
        <route edges="right-approaching closed-lane remerging-lane left-exit"/>
    </vehicle>
    <vehicle id="L4-CV-203" type="L4-CV-" depart="357.28">
        <route edges="bottom-approaching top-exit"/>
    </vehicle>
    <vehicle id="L4-CV-204" type="L4-CV-" depart="359.04">
        <route edges="top-approaching closed-lane remerging-lane left-exit"/>
    </vehicle>
    <vehicle id="L4-CV-205" type="L4-CV-Left-" depart="360.80">
        <route edges="left-long-approaching preparation"/>
    </vehicle>
    <vehicle id="L4-CV-206" type="L4-CV-" depart="362.56">
        <route edges="bottom-approaching right-exit"/>
    </vehicle>
    <vehicle id="L4-CV-207" type="L4-CV-" depart="364.32">
        <route edges="bottom-approaching closed-lane remerging-lane left-exit"/>
    </vehicle>
    <vehicle id="L4-CV-208" type="L4-CV-" depart="366.08">
        <route edges="top-approaching bottom-exit"/>
    </vehicle>
    <vehicle id="L4-CV-209" type="L4-CV-" depart="367.84">
        <route edges="bottom-approaching closed-lane remerging-lane left-exit"/>
    </vehicle>
    <vehicle id="L4-CV-210" type="L4-CV-Left-" depart="369.60">
        <route edges="left-long-approaching preparation"/>
    </vehicle>
    <vehicle id="L4-CV-212" type="L4-CV-" depart="373.12">
        <route edges="bottom-approaching top-exit"/>
    </vehicle>
    <vehicle id="L4-CV-213" type="L4-CV-" depart="374.88">
        <route edges="left-long-approaching preparation left-short-approaching right-exit"/>
    </vehicle>
    <vehicle id="L4-CV-214" type="L4-CV-Right-" depart="376.64">
        <route edges="left-long-approaching preparation left-short-approaching bottom-exit"/>
    </vehicle>
    <vehicle id="L4-CV-215" type="L4-CV-Right-" depart="378.40">
        <route edges="left-long-approaching preparation left-short-approaching bottom-exit"/>
    </vehicle>
    <vehicle id="L4-CV-216" type="L4-CV-" depart="380.16">
        <route edges="bottom-approaching right-exit"/>
    </vehicle>
    <vehicle id="L4-CV-217" type="L4-CV-" depart="381.92">
        <route edges="right-approaching bottom-exit"/>
    </vehicle>
    <vehicle id="L4-CV-218" type="L4-CV-" depart="383.68">
        <route edges="right-approaching closed-lane remerging-lane left-exit"/>
    </vehicle>
    <vehicle id="L4-CV-219" type="L4-CV-Left-" depart="385.44">
        <route edges="left-long-approaching preparation"/>
    </vehicle>
    <vehicle id="L4-CV-220" type="L4-CV-Left-" depart="387.20">
        <route edges="left-long-approaching preparation"/>
    </vehicle>
    <vehicle id="L4-CV-221" type="L4-CV-" depart="388.96">
        <route edges="right-approaching closed-lane remerging-lane left-exit"/>
    </vehicle>
    <vehicle id="L4-CV-222" type="L4-CV-" depart="390.72">
        <route edges="right-approaching closed-lane remerging-lane left-exit"/>
    </vehicle>
    <vehicle id="L4-CV-223" type="L4-CV-" depart="392.48">
        <route edges="bottom-approaching right-exit"/>
    </vehicle>
    <vehicle id="L4-CV-224" type="L4-CV-" depart="394.24">
        <route edges="right-approaching top-exit"/>
    </vehicle>
    <vehicle id="L4-CV-225" type="L4-CV-" depart="396.00">
        <route edges="bottom-approaching top-exit"/>
    </vehicle>
    <vehicle id="L4-CV-227" type="L4-CV-" depart="399.52">
        <route edges="top-approaching right-exit"/>
    </vehicle>
    <vehicle id="L4-CV-228" type="L4-CV-" depart="401.28">
        <route edges="top-approaching right-exit"/>
    </vehicle>
    <vehicle id="L4-CV-229" type="L4-CV-" depart="403.04">
        <route edges="top-approaching bottom-exit"/>
    </vehicle>
    <vehicle id="L4-CV-230" type="L4-CV-" depart="404.80">
        <route edges="top-approaching closed-lane remerging-lane left-exit"/>
    </vehicle>
    <vehicle id="L4-CV-231" type="L4-CV-" depart="406.56">
        <route edges="top-approaching closed-lane remerging-lane left-exit"/>
    </vehicle>
    <vehicle id="L4-CV-232" type="L4-CV-" depart="408.32">
        <route edges="top-approaching bottom-exit"/>
    </vehicle>
    <vehicle id="L4-CV-233" type="L4-CV-" depart="410.08">
        <route edges="bottom-approaching top-exit"/>
    </vehicle>
    <vehicle id="L4-CV-234" type="L4-CV-Left-" depart="411.84">
        <route edges="left-long-approaching preparation"/>
    </vehicle>
    <vehicle id="L4-CV-235" type="L4-CV-" depart="413.60">
        <route edges="top-approaching right-exit"/>
    </vehicle>
    <vehicle id="L4-CV-236" type="L4-CV-" depart="415.36">
        <route edges="right-approaching bottom-exit"/>
    </vehicle>
    <vehicle id="L4-CV-237" type="L4-CV-" depart="417.12">
        <route edges="bottom-approaching top-exit"/>
    </vehicle>
    <vehicle id="L4-CV-239" type="L4-CV-" depart="420.64">
        <route edges="right-approaching closed-lane remerging-lane left-exit"/>
    </vehicle>
    <vehicle id="L4-CV-240" type="L4-CV-Right-" depart="422.40">
        <route edges="left-long-approaching preparation left-short-approaching bottom-exit"/>
    </vehicle>
    <vehicle id="L4-CV-241" type="L4-CV-" depart="424.16">
        <route edges="left-long-approaching preparation left-short-approaching right-exit"/>
    </vehicle>
    <vehicle id="L4-CV-243" type="L4-CV-Right-" depart="427.68">
        <route edges="left-long-approaching preparation left-short-approaching bottom-exit"/>
    </vehicle>
    <vehicle id="L4-CV-244" type="L4-CV-" depart="429.44">
        <route edges="top-approaching right-exit"/>
    </vehicle>
    <vehicle id="L4-CV-245" type="L4-CV-" depart="431.20">
        <route edges="bottom-approaching closed-lane remerging-lane left-exit"/>
    </vehicle>
    <vehicle id="L4-CV-246" type="L4-CV-" depart="432.96">
        <route edges="right-approaching bottom-exit"/>
    </vehicle>
    <vehicle id="L4-CV-248" type="L4-CV-" depart="436.48">
        <route edges="right-approaching bottom-exit"/>
    </vehicle>
    <vehicle id="L4-CV-249" type="L4-CV-" depart="438.24">
        <route edges="bottom-approaching closed-lane remerging-lane left-exit"/>
    </vehicle>
    <vehicle id="L4-CV-250" type="L4-CV-" depart="440.00">
        <route edges="bottom-approaching closed-lane remerging-lane left-exit"/>
    </vehicle>
    <vehicle id="L4-CV-251" type="L4-CV-" depart="441.76">
        <route edges="bottom-approaching top-exit"/>
    </vehicle>
    <vehicle id="L4-CV-252" type="L4-CV-" depart="443.52">
        <route edges="top-approaching bottom-exit"/>
    </vehicle>
    <vehicle id="L4-CV-253" type="L4-CV-" depart="445.28">
        <route edges="top-approaching bottom-exit"/>
    </vehicle>
    <vehicle id="L4-CV-254" type="L4-CV-" depart="447.04">
        <route edges="bottom-approaching right-exit"/>
    </vehicle>
    <vehicle id="L4-CV-255" type="L4-CV-" depart="448.80">
        <route edges="top-approaching bottom-exit"/>
    </vehicle>
    <vehicle id="L4-CV-256" type="L4-CV-" depart="450.56">
        <route edges="bottom-approaching closed-lane remerging-lane left-exit"/>
    </vehicle>
    <vehicle id="L4-CV-257" type="L4-CV-" depart="452.32">
        <route edges="bottom-approaching right-exit"/>
    </vehicle>
    <vehicle id="L4-CV-258" type="L4-CV-" depart="454.08">
        <route edges="top-approaching bottom-exit"/>
    </vehicle>
    <vehicle id="L4-CV-259" type="L4-CV-" depart="455.84">
        <route edges="bottom-approaching closed-lane remerging-lane left-exit"/>
    </vehicle>
    <vehicle id="L4-CV-260" type="L4-CV-" depart="457.60">
        <route edges="top-approaching bottom-exit"/>
    </vehicle>
    <vehicle id="L4-CV-261" type="L4-CV-" depart="459.36">
        <route edges="top-approaching closed-lane remerging-lane left-exit"/>
    </vehicle>
    <vehicle id="L4-CV-264" type="L4-CV-" depart="464.64">
        <route edges="right-approaching bottom-exit"/>
    </vehicle>
    <vehicle id="L4-CV-265" type="L4-CV-" depart="466.40">
        <route edges="top-approaching bottom-exit"/>
    </vehicle>
    <vehicle id="L4-CV-266" type="L4-CV-" depart="468.16">
        <route edges="right-approaching bottom-exit"/>
    </vehicle>
    <vehicle id="L4-CV-268" type="L4-CV-" depart="471.68">
        <route edges="top-approaching closed-lane remerging-lane left-exit"/>
    </vehicle>
    <vehicle id="L4-CV-269" type="L4-CV-" depart="473.44">
        <route edges="bottom-approaching top-exit"/>