<additional>
    <!-- <e1Detector id="det_0" lane="bottom-approaching_0" pos="20" freq="20" file="left-approaching.out.xml" />
    <e1Detector id="det_1" lane="bottom-approaching_1" pos="20" freq="20" file="left-approaching.out.xml"/>
    <e1Detector id="det_2" lane="bottom-approaching_2" pos="20" freq="20" file="left-approaching.out.xml"/>
    <e1Detector id="det_3" lane="bottom-approaching_0" pos="120" freq="20" file="left-approaching.out.xml"/>
    <e1Detector id="det_4" lane="bottom-approaching_0" pos="240" freq="20" file="left-approaching.out.xml"/>
    <e1Detector id="det_5" lane="bottom-approaching_0" pos="360" freq="20" file="left-approaching.out.xml"/> -->

    <!-- <e1Detector id="det_0" lane="left-long-approaching_0" pos="150" freq="20" file="left-approaching.out.xml"/>
    <e1Detector id="det_1" lane="left-long-approaching_1" pos="150" freq="20" file="left-approaching.out.xml"/>
    <e1Detector id="det_2" lane="left-long-approaching_2" pos="150" freq="20" file="left-approaching.out.xml"/>

    <e1Detector id="det_3" lane="preparation_2" pos="100" freq="1" file="left-approaching.out.xml"/>

    <e1Detector id="det_4" lane="bottom-approaching_2" pos="470" freq="1" file="left-approaching.out.xml"/>
    <e1Detector id="det_5" lane="right-approaching_1" pos="470" freq="1" file="left-approaching.out.xml"/>
    <e1Detector id="det_6" lane="top-approaching_0" pos="470" freq="1" file="left-approaching.out.xml"/> -->

</additional>