<additional>
    <!-- <rerouter id="123" edges="closed-lane">
    	<interval begin="0" end="1000">
        	<closingLaneReroute id="closed-lane_0" >
    	  		<param key="closingLaneReroute" value="true"/> 
    		</closingLaneReroute>
    	</interval>

    	<interval begin="0" end="1000">
        	<closingLaneReroute id="closed-lane_1" >
    	  		<param key="closingLaneReroute" value="true"/> 
    		</closingLaneReroute>
    	</interval>
    </rerouter>

    <rerouter id="123" edges="closed-lane">
    	<interval begin="0" end="1000">
     		<closingLaneReroute id="closed-lane_2" allow="passenger">
    	  		<param key="closingLaneReroute" value="true"/> 
    	  	</closingLaneReroute>
    	</interval>
    </rerouter>

    <rerouter id="123" edges="left-short-approaching">
    	<interval begin="0" end="1000">
    		<closingLaneReroute id="left-short-approaching_1" allow="custom1 passenger" >
    			<param key="closingLaneReroute" value="true"/> 
    		</closingLaneReroute>
       	</interval>
    </rerouter>

	<rerouter id="123" edges="preparation">
    	<interval begin="0" end="1000">
    		<closingLaneReroute id="preparation_1" allow="custom1 passenger" >
    			<param key="closingLaneReroute" value="true"/> 
    		</closingLaneReroute>
       	</interval>
    </rerouter>
	<rerouter id="123" edges="preparation">
    	<interval begin="0" end="1000">
    		<closingLaneReroute id="preparation_0" allow="custom1 passenger" >
    			<param key="closingLaneReroute" value="true"/> 
    		</closingLaneReroute>
       	</interval>
    </rerouter> -->
</additional>