<additional >

    
    <poi id="Traffic-Light-Sign-Top" type="Traffic-Lights" layer="0" x="485" y="570" width="5" height="5" color="255, 255, 255" imgFile="../../RoadSigns/traffic_lights.png"/>
    <poi id="Traffic-Light-Sign-Left" type="Traffic-Lights" layer="0" x="430" y="485" width="5" height="5" color="255, 255, 255" imgFile="../../RoadSigns/traffic_lights.png"/>
    <poi id="Traffic-Light-Sign-Bottom" type="Traffic-Lights" layer="0" x="515" y="430" width="5" height="5" color="255, 255, 255" imgFile="../../RoadSigns/traffic_lights.png"/>
    <poi id="Traffic-Light-Sign-Right" type="Traffic-Lights" layer="0" x="570" y="515" width="5" height="5" color="255, 255, 255" imgFile="../../RoadSigns/traffic_lights.png"/>

    <poi id="Intersection-Sign-Top" type="Intersection" layer="0" x="485" y="590" width="5" height="5" color="255, 255, 255" imgFile="../../RoadSigns/Intersection-Sign.jpg"/>
    <poi id="Intersection-Sign-Left" type="Intersection" layer="0" x="410" y="485" width="5" height="5" color="255, 255, 255" imgFile="../../RoadSigns/Intersection-Sign.jpg"/>
    <poi id="Intersection-Sign-Bottom" type="Intersection" layer="0" x="515" y="410" width="5" height="5" color="255, 255, 255" imgFile="../../RoadSigns/Intersection-Sign.jpg"/>
    <poi id="Intersection-Sign-Right" type="Intersection" layer="0" x="590" y="515" width="5" height="5" color="255, 255, 255" imgFile="../../RoadSigns/Intersection-Sign.jpg"/>

    <poi id="Roadworks-Sign-Top" type="Roadworks" layer="0" x="485" y="580" width="5" height="5" color="255, 255, 255" imgFile="../../RoadSigns/Roadworks-Image.jpg"/>
    <poi id="Roadworks-Sign-Bottom" type="Roadworks" layer="0" x="515" y="420" width="5" height="5" color="255, 255, 255" imgFile="../../RoadSigns/Roadworks-Image.jpg"/>
    <poi id="Roadworks-Sign-Right" type="Roadworks" layer="0" x="580" y="515" width="5" height="5" color="255, 255, 255" imgFile="../../RoadSigns/Roadworks-Image.jpg"/>

    <poi id="Roadworks-Sign-Left-Approach-1" type="Roadworks" layer="0" x="390" y="485" width="5" height="5" color="255, 255, 255" imgFile="../../RoadSigns/Roadworks-Image.jpg"/>
    <poi id="Roadworks-Sign-Left-Approach-2" type="Merging" layer="0" x="400" y="485" width="5" height="5" color="255, 255, 255" imgFile="../../RoadSigns/Left-Lane-Closed-Ahead.png"/>
    <poi id="Roadworks-Sign-Left-Approach-3" type="Merging" layer="0" x="420" y="485" width="5" height="5" color="255, 255, 255" imgFile="../../RoadSigns/Left-Lane-Closed-Ahead.png"/>

    <poi id="Roadworks-Sign-Left-exit" type="Roadworks" layer="0" x="440" y="515" width="5" height="5" color="255, 255, 255" imgFile="../../RoadSigns/Roadworks-Image.jpg"/>

    <poi id="RSI-Top-Left" type="RSI" layer="0" x="483" y="514" width="5" height="5" color="255, 255, 255" imgFile="../../RoadSigns/RSI.png"/>
    <poi id="RSI-Bottom-Right" type="RSI" layer="0" x="516" y="488" width="5" height="5" color="255, 255, 255" imgFile="../../RoadSigns/RSI.png"/>
</additional>