<additional>
    <tlLogic id="center" type="actuated" programID="my_program" offset="10">
  	    <param key="max-gap" value="3.0"/>
  	    <param key="detector-gap" value="2.0"/>
  	    <param key="passing-time" value="2.0"/>
  	    <param key="vTypes" value=""/>
  	    <param key="show-detectors" value="true"/>
  	    <param key="file" value="NULL"/>
  	    <param key="freq" value="300"/>

   	    <phase duration="22" minDur="20" maxDur="24" state="GGsrrrGGsrrr"/>
	    <phase duration="5" minDur="4" maxDur="6" state="yysrrryysrrr"/>
	    <phase duration="10" minDur="8" maxDur="12" state="rrGrrrrrGrrr"/>
		<phase duration="5" minDur="4" maxDur="6" state="rryrrrrryrrr"/>    

	    <phase duration="22" minDur="20" maxDur="24" state="rrrGGsrrrGGs"/>
	    <phase duration="5" minDur="4" maxDur="6" state="rrryysrrryys"/>
	    <phase duration="10" minDur="8" maxDur="12" state="rrrrrGrrrrrG"/>  
		<phase duration="5" minDur="4" maxDur="6" state="rrrrryrrrrry"/>    
    
	    <phase duration="10" minDur="10" maxDur="10" state="rrrrrrrrrrrr"/>
    </tlLogic>
</additional>