<additional>
    <e1Detector id="det_0" lane="preparation_2" pos="60" freq="1000" file="left-approaching.out.xml"/>
    <e1Detector id="det_1" lane="preparation_2" pos="125" freq="1000" file="left-approaching.out.xml"/>
</additional>