<additional>
    <e1Detector id="rerouting-left-vehicles" lane="preparation_2" pos="80" freq="1000" file="left-approaching.out.xml"/>
    <e1Detector id="leftlaneStandardDetection" lane="preparation_2" pos="130" freq="1000" file="left-approaching.out.xml"/>
    <!-- <e1Detector id="issuingToCInVehicleTMS" lane="preparation_2" pos="170" freq="1000" file="left-approaching.out.xml"/> -->
    <e1Detector id="allVehiclesToC" lane="preparation_2" pos="200" freq="1000" file="left-approaching.out.xml"/>
    

    <e1Detector id="allowingRightLaneAccessTMS" lane="preparation_0" pos="150" freq="1000" file="left-short-approaching.out.xml"/>
    <e1Detector id="allowingRightLaneAccess2TMS" lane="preparation_1" pos="150" freq="1000" file="left-short-approaching.out.xml"/>
    <e1Detector id="allowingRightLaneAccessLate" lane="preparation_1" pos="210" freq="1000" file="left-short-approaching.out.xml"/>

    <e1Detector id="advanceTop_0" lane="top-approaching_0" pos="375" freq="1000" file="left-approaching.out.xml"/>
    <e1Detector id="advanceTop_1" lane="top-approaching_1" pos="375" freq="1000" file="left-approaching.out.xml"/>
    <e1Detector id="advanceTop_2" lane="top-approaching_2" pos="375" freq="1000" file="left-approaching.out.xml"/>

    <e1Detector id="advanceRight_0" lane="right-approaching_0" pos="375" freq="1000" file="left-short-approaching.out.xml"/>
    <e1Detector id="advanceRight_1" lane="right-approaching_1" pos="375" freq="1000" file="left-short-approaching.out.xml"/>
    <e1Detector id="advanceRight_2" lane="right-approaching_2" pos="375" freq="1000" file="left-short-approaching.out.xml"/>
    
    <e1Detector id="advanceBottom_0" lane="bottom-approaching_0" pos="375" freq="1000" file="left-short-approaching.out.xml"/>
    <e1Detector id="advanceBottom_1" lane="bottom-approaching_1" pos="375" freq="1000" file="left-short-approaching.out.xml"/>
    <e1Detector id="advanceBottom_2" lane="bottom-approaching_2" pos="375" freq="1000" file="left-short-approaching.out.xml"/>

    <e1Detector id="lateTop_0" lane="top-approaching_0" pos="480" freq="1000" file="left-approaching.out.xml"/>
    <e1Detector id="lateTop_1" lane="top-approaching_1" pos="480" freq="1000" file="left-approaching.out.xml"/>
    <e1Detector id="lateTop_2" lane="top-approaching_2" pos="480" freq="1000" file="left-approaching.out.xml"/>

    <e1Detector id="lateRight_0" lane="right-approaching_0" pos="480" freq="1000" file="left-short-approaching.out.xml"/>
    <e1Detector id="lateRight_1" lane="right-approaching_1" pos="480" freq="1000" file="left-short-approaching.out.xml"/>
    <e1Detector id="lateRight_2" lane="right-approaching_2" pos="480" freq="1000" file="left-short-approaching.out.xml"/>
    
    <e1Detector id="lateBottom_0" lane="bottom-approaching_0" pos="480" freq="1000" file="left-short-approaching.out.xml"/>
    <e1Detector id="lateBottom_1" lane="bottom-approaching_1" pos="480" freq="1000" file="left-short-approaching.out.xml"/>
    <e1Detector id="lateBottom_2" lane="bottom-approaching_2" pos="480" freq="1000" file="left-short-approaching.out.xml"/>

    <e1Detector id="majorDelayDetection_0" lane="left-long-approaching_0" pos="200" freq="1000" file="left-short-approaching.out.xml"/>
    <e1Detector id="majorDelayDetection_1" lane="left-long-approaching_1" pos="200" freq="1000" file="left-short-approaching.out.xml"/>
    <e1Detector id="majorDelayDetection_2" lane="left-long-approaching_2" pos="200" freq="1000" file="left-short-approaching.out.xml"/>

    <e1Detector id="upstreamTMSTop_0" lane="top-exit_0" pos="375" freq="1000" file="left-short-approaching.out.xml"/>
    <e1Detector id="upstreamTMSTop_1" lane="top-exit_1" pos="375" freq="1000" file="left-short-approaching.out.xml"/>

    <e1Detector id="upstreamTMSRight_0" lane="right-exit_0" pos="375" freq="1000" file="left-short-approaching.out.xml"/>
    <e1Detector id="upstreamTMSRight_1" lane="right-exit_1" pos="375" freq="1000" file="left-short-approaching.out.xml"/>
    
    <e1Detector id="upstreamTMSBottom_0" lane="bottom-exit_0" pos="375" freq="1000" file="left-short-approaching.out.xml"/>
    <e1Detector id="upstreamTMSBottom_1" lane="bottom-exit_1" pos="375" freq="1000" file="left-short-approaching.out.xml"/>
    
    <e1Detector id="upstreamTMSLeft_0" lane="left-exit_0" pos="290" freq="1000" file="left-short-approaching.out.xml"/>
    <e1Detector id="upstreamTMSLeft_1" lane="left-exit_1" pos="290" freq="1000" file="left-short-approaching.out.xml"/>

</additional>