<additional>
    <tlLogic id="center" type="actuated" programID="my_program" offset="10">
  	    <param key="max-gap" value="3.0"/>
  	    <param key="detector-gap" value="2.0"/>
  	    <param key="passing-time" value="2.0"/>
  	    <param key="vTypes" value=""/>
  	    <param key="show-detectors" value="true"/>
  	    <param key="file" value="NULL"/>
  	    <param key="freq" value="300"/>

   	    <phase duration="20" minDur="18" maxDur="22" state="GGsrrrGGsrrrr"/>
	    <phase duration="5" minDur="4" maxDur="6" state="yysrrryysrrrr"/>
	    <phase duration="12" minDur="10" maxDur="14" state="rrGrrrrrGrrrr"/>
		<phase duration="5" minDur="4" maxDur="6" state="rryrrrrryrrrr"/>    

	    <phase duration="20" minDur="18" maxDur="22" state="rrrGGsrrrGGGs"/>
	    <phase duration="5" minDur="4" maxDur="6" state="rrryysrrryyys"/>
	    <phase duration="12" minDur="10" maxDur="14" state="rrrrrGrrrrrrG"/>  
		<phase duration="5" minDur="4" maxDur="6" state="rrrrryrrrrrry"/>    
    
	    <phase duration="10" minDur="10" maxDur="10" state="rrrrrrrrrrrrr"/>
    </tlLogic>
</additional>