<additional >

    
    <poi id="Traffic-Light-Sign-Top" type="Traffic-Lights" layer="0" x="885" y="570" width="5" height="5" color="255, 255, 255" imgFile="../../RoadSigns/traffic_lights.png"/>
    <poi id="Traffic-Light-Sign-Left" type="Traffic-Lights" layer="0" x="830" y="485" width="5" height="5" color="255, 255, 255" imgFile="../../RoadSigns/traffic_lights.png"/>
    <poi id="Traffic-Light-Sign-Bottom" type="Traffic-Lights" layer="0" x="915" y="430" width="5" height="5" color="255, 255, 255" imgFile="../../RoadSigns/traffic_lights.png"/>
    <poi id="Traffic-Light-Sign-Right" type="Traffic-Lights" layer="0" x="970" y="515" width="5" height="5" color="255, 255, 255" imgFile="../../RoadSigns/traffic_lights.png"/>

    <poi id="Intersection-Sign-Top" type="Intersection" layer="0" x="885" y="590" width="5" height="5" color="255, 255, 255" imgFile="../../RoadSigns/Intersection-Sign.jpg"/>
    <poi id="Intersection-Sign-Left" type="Intersection" layer="0" x="810" y="485" width="5" height="5" color="255, 255, 255" imgFile="../../RoadSigns/Intersection-Sign.jpg"/>
    <poi id="Intersection-Sign-Bottom" type="Intersection" layer="0" x="915" y="410" width="5" height="5" color="255, 255, 255" imgFile="../../RoadSigns/Intersection-Sign.jpg"/>
    <poi id="Intersection-Sign-Right" type="Intersection" layer="0" x="990" y="515" width="5" height="5" color="255, 255, 255" imgFile="../../RoadSigns/Intersection-Sign.jpg"/>

    <poi id="Roadworks-Sign-Top" type="Roadworks" layer="0" x="885" y="580" width="5" height="5" color="255, 255, 255" imgFile="../../RoadSigns/Roadworks-Image.jpg"/>
    <poi id="Roadworks-Sign-Bottom" type="Roadworks" layer="0" x="915" y="420" width="5" height="5" color="255, 255, 255" imgFile="../../RoadSigns/Roadworks-Image.jpg"/>
    <poi id="Roadworks-Sign-Right" type="Roadworks" layer="0" x="980" y="515" width="5" height="5" color="255, 255, 255" imgFile="../../RoadSigns/Roadworks-Image.jpg"/>

    <poi id="Roadworks-Sign-Left-Approach-1" type="Roadworks" layer="0" x="790" y="485" width="5" height="5" color="255, 255, 255" imgFile="../../RoadSigns/Roadworks-Image.jpg"/>
    <poi id="Roadworks-Sign-Left-Approach-2" type="Merging" layer="0" x="800" y="485" width="5" height="5" color="255, 255, 255" imgFile="../../RoadSigns/Left-Lane-Closed-Ahead.png"/>
    <poi id="Roadworks-Sign-Left-Approach-3" type="Merging" layer="0" x="820" y="485" width="5" height="5" color="255, 255, 255" imgFile="../../RoadSigns/Left-Lane-Closed-Ahead.png"/>

    <poi id="Roadworks-Sign-Left-exit" type="Roadworks" layer="0" x="840" y="515" width="5" height="5" color="255, 255, 255" imgFile="../../RoadSigns/Roadworks-Image.jpg"/>

</additional>