<?xml version="1.0" ?><!-- generated on 03/25/21 23:22:30 by Eclipse SUMO duarouter Version 1.8.0
<configuration xmlns:xsi="http://www.w3.org/2001/XMLSchema-instance" xsi:noNamespaceSchemaLocation="http://sumo.dlr.de/xsd/duarouterConfiguration.xsd">

    <input>
        <net-file value="Roadworks/RoadworksIntersection.net.xml"/>
        <route-files value="trips.trips.xml"/>
    </input>

    <output>
        <output-file value="Roadworks/RealTMSCAV/Route-Files/L4-CV-Route.rou.xml"/>
        <alternatives-output value="Roadworks/RealTMSCAV/Route-Files/L4-CV-Route.rou.alt.xml"/>
    </output>

    <time>
        <begin value="0"/>
        <end value="3600"/>
    </time>

    <report>
        <no-warnings value="true"/>
        <ignore-errors value="true"/>
        <no-step-log value="true"/>
    </report>

</configuration>
--><routes xmlns:xsi="http://www.w3.org/2001/XMLSchema-instance" xsi:noNamespaceSchemaLocation="http://sumo.dlr.de/xsd/routes_file.xsd">
    <vehicle id="L4-CV-2" type="L4-CV-" depart="1.88">
        <route edges="top-approaching right-exit"/>
    </vehicle>
    <vehicle id="L4-CV-3" type="L4-CV-" depart="2.82">
        <route edges="right-approaching closed-lane remerging-lane left-exit"/>
    </vehicle>
    <vehicle id="L4-CV-5" type="L4-CV-" depart="4.70">
        <route edges="right-approaching bottom-exit"/>
    </vehicle>
    <vehicle id="L4-CV-7" type="L4-CV-" depart="6.58">
        <route edges="right-approaching top-exit"/>
    </vehicle>
    <vehicle id="L4-CV-8" type="L4-CV-" depart="7.52">
        <route edges="top-approaching right-exit"/>
    </vehicle>
    <vehicle id="L4-CV-12" type="L4-CV-Left-" depart="11.28">
        <route edges="left-long-approaching preparation"/>
    </vehicle>
    <vehicle id="L4-CV-15" type="L4-CV-Right-" depart="14.10">
        <route edges="left-long-approaching preparation left-short-approaching bottom-exit"/>
    </vehicle>
    <vehicle id="L4-CV-16" type="L4-CV-" depart="15.04">
        <route edges="right-approaching top-exit"/>
    </vehicle>
    <vehicle id="L4-CV-17" type="L4-CV-" depart="15.98">
        <route edges="right-approaching bottom-exit"/>
    </vehicle>
    <vehicle id="L4-CV-19" type="L4-CV-" depart="17.86">
        <route edges="right-approaching top-exit"/>
    </vehicle>
    <vehicle id="L4-CV-21" type="L4-CV-Left-" depart="19.74">
        <route edges="left-long-approaching preparation"/>
    </vehicle>
    <vehicle id="L4-CV-22" type="L4-CV-" depart="20.68">
        <route edges="top-approaching bottom-exit"/>
    </vehicle>
    <vehicle id="L4-CV-23" type="L4-CV-" depart="21.62">
        <route edges="top-approaching right-exit"/>
    </vehicle>
    <vehicle id="L4-CV-24" type="L4-CV-" depart="22.56">
        <route edges="left-long-approaching preparation left-short-approaching right-exit"/>
    </vehicle>
    <vehicle id="L4-CV-25" type="L4-CV-Left-" depart="23.50">
        <route edges="left-long-approaching preparation"/>
    </vehicle>
    <vehicle id="L4-CV-26" type="L4-CV-Left-" depart="24.44">
        <route edges="left-long-approaching preparation"/>
    </vehicle>
    <vehicle id="L4-CV-27" type="L4-CV-Left-" depart="25.38">
        <route edges="left-long-approaching preparation"/>
    </vehicle>
    <vehicle id="L4-CV-28" type="L4-CV-" depart="26.32">
        <route edges="top-approaching closed-lane remerging-lane left-exit"/>
    </vehicle>
    <vehicle id="L4-CV-29" type="L4-CV-" depart="27.26">
        <route edges="right-approaching top-exit"/>
    </vehicle>
    <vehicle id="L4-CV-30" type="L4-CV-" depart="28.20">
        <route edges="right-approaching closed-lane remerging-lane left-exit"/>
    </vehicle>
    <vehicle id="L4-CV-31" type="L4-CV-" depart="29.14">
        <route edges="bottom-approaching closed-lane remerging-lane left-exit"/>
    </vehicle>
    <vehicle id="L4-CV-32" type="L4-CV-" depart="30.08">
        <route edges="right-approaching bottom-exit"/>
    </vehicle>
    <vehicle id="L4-CV-33" type="L4-CV-" depart="31.02">
        <route edges="top-approaching closed-lane remerging-lane left-exit"/>
    </vehicle>
    <vehicle id="L4-CV-34" type="L4-CV-" depart="31.96">
        <route edges="top-approaching closed-lane remerging-lane left-exit"/>
    </vehicle>
    <vehicle id="L4-CV-35" type="L4-CV-" depart="32.90">
        <route edges="top-approaching right-exit"/>
    </vehicle>
    <vehicle id="L4-CV-38" type="L4-CV-Right-" depart="35.72">
        <route edges="left-long-approaching preparation left-short-approaching bottom-exit"/>
    </vehicle>
    <vehicle id="L4-CV-39" type="L4-CV-" depart="36.66">
        <route edges="right-approaching top-exit"/>
    </vehicle>
    <vehicle id="L4-CV-40" type="L4-CV-" depart="37.60">
        <route edges="right-approaching bottom-exit"/>
    </vehicle>
    <vehicle id="L4-CV-41" type="L4-CV-" depart="38.54">
        <route edges="top-approaching right-exit"/>
    </vehicle>
    <vehicle id="L4-CV-42" type="L4-CV-" depart="39.48">
        <route edges="top-approaching bottom-exit"/>
    </vehicle>
    <vehicle id="L4-CV-43" type="L4-CV-" depart="40.42">
        <route edges="right-approaching bottom-exit"/>
    </vehicle>
    <vehicle id="L4-CV-44" type="L4-CV-" depart="41.36">
        <route edges="right-approaching closed-lane remerging-lane left-exit"/>
    </vehicle>
    <vehicle id="L4-CV-45" type="L4-CV-" depart="42.30">
        <route edges="bottom-approaching top-exit"/>
    </vehicle>
    <vehicle id="L4-CV-46" type="L4-CV-" depart="43.24">
        <route edges="bottom-approaching right-exit"/>
    </vehicle>
    <vehicle id="L4-CV-47" type="L4-CV-" depart="44.18">
        <route edges="top-approaching bottom-exit"/>
    </vehicle>
    <vehicle id="L4-CV-48" type="L4-CV-" depart="45.12">
        <route edges="bottom-approaching top-exit"/>
    </vehicle>
    <vehicle id="L4-CV-49" type="L4-CV-" depart="46.06">
        <route edges="left-long-approaching preparation left-short-approaching right-exit"/>
    </vehicle>
    <vehicle id="L4-CV-50" type="L4-CV-" depart="47.00">
        <route edges="bottom-approaching closed-lane remerging-lane left-exit"/>
    </vehicle>
    <vehicle id="L4-CV-51" type="L4-CV-" depart="47.94">
        <route edges="bottom-approaching right-exit"/>
    </vehicle>
    <vehicle id="L4-CV-52" type="L4-CV-" depart="48.88">
        <route edges="bottom-approaching top-exit"/>
    </vehicle>
    <vehicle id="L4-CV-53" type="L4-CV-" depart="49.82">
        <route edges="bottom-approaching right-exit"/>
    </vehicle>
    <vehicle id="L4-CV-54" type="L4-CV-" depart="50.76">
        <route edges="bottom-approaching closed-lane remerging-lane left-exit"/>
    </vehicle>
    <vehicle id="L4-CV-55" type="L4-CV-" depart="51.70">
        <route edges="top-approaching bottom-exit"/>
    </vehicle>
    <vehicle id="L4-CV-56" type="L4-CV-" depart="52.64">
        <route edges="bottom-approaching right-exit"/>
    </vehicle>
    <vehicle id="L4-CV-57" type="L4-CV-Right-" depart="53.58">
        <route edges="left-long-approaching preparation left-short-approaching bottom-exit"/>
    </vehicle>
    <vehicle id="L4-CV-58" type="L4-CV-" depart="54.52">
        <route edges="top-approaching bottom-exit"/>
    </vehicle>
    <vehicle id="L4-CV-59" type="L4-CV-" depart="55.46">
        <route edges="bottom-approaching closed-lane remerging-lane left-exit"/>
    </vehicle>
    <vehicle id="L4-CV-61" type="L4-CV-" depart="57.34">
        <route edges="bottom-approaching closed-lane remerging-lane left-exit"/>
    </vehicle>
    <vehicle id="L4-CV-62" type="L4-CV-" depart="58.28">
        <route edges="bottom-approaching closed-lane remerging-lane left-exit"/>
    </vehicle>
    <vehicle id="L4-CV-63" type="L4-CV-" depart="59.22">
        <route edges="top-approaching right-exit"/>
    </vehicle>
    <vehicle id="L4-CV-65" type="L4-CV-" depart="61.10">
        <route edges="top-approaching right-exit"/>
    </vehicle>
    <vehicle id="L4-CV-66" type="L4-CV-Right-" depart="62.04">
        <route edges="left-long-approaching preparation left-short-approaching bottom-exit"/>
    </vehicle>
    <vehicle id="L4-CV-67" type="L4-CV-" depart="62.98">
        <route edges="right-approaching closed-lane remerging-lane left-exit"/>
    </vehicle>
    <vehicle id="L4-CV-68" type="L4-CV-" depart="63.92">
        <route edges="bottom-approaching closed-lane remerging-lane left-exit"/>
    </vehicle>
    <vehicle id="L4-CV-69" type="L4-CV-" depart="64.86">
        <route edges="top-approaching bottom-exit"/>
    </vehicle>
    <vehicle id="L4-CV-70" type="L4-CV-" depart="65.80">
        <route edges="right-approaching closed-lane remerging-lane left-exit"/>
    </vehicle>
    <vehicle id="L4-CV-71" type="L4-CV-" depart="66.74">
        <route edges="right-approaching bottom-exit"/>
    </vehicle>
    <vehicle id="L4-CV-72" type="L4-CV-" depart="67.68">
        <route edges="top-approaching closed-lane remerging-lane left-exit"/>
    </vehicle>
    <vehicle id="L4-CV-73" type="L4-CV-" depart="68.62">
        <route edges="right-approaching closed-lane remerging-lane left-exit"/>
    </vehicle>
    <vehicle id="L4-CV-74" type="L4-CV-" depart="69.56">
        <route edges="bottom-approaching right-exit"/>
    </vehicle>
    <vehicle id="L4-CV-77" type="L4-CV-" depart="72.38">
        <route edges="bottom-approaching right-exit"/>
    </vehicle>
    <vehicle id="L4-CV-78" type="L4-CV-" depart="73.32">
        <route edges="right-approaching top-exit"/>
    </vehicle>
    <vehicle id="L4-CV-80" type="L4-CV-" depart="75.20">
        <route edges="bottom-approaching closed-lane remerging-lane left-exit"/>
    </vehicle>
    <vehicle id="L4-CV-81" type="L4-CV-" depart="76.14">
        <route edges="left-long-approaching preparation left-short-approaching right-exit"/>
    </vehicle>
    <vehicle id="L4-CV-82" type="L4-CV-" depart="77.08">
        <route edges="right-approaching top-exit"/>
    </vehicle>
    <vehicle id="L4-CV-83" type="L4-CV-" depart="78.02">
        <route edges="right-approaching closed-lane remerging-lane left-exit"/>
    </vehicle>
    <vehicle id="L4-CV-84" type="L4-CV-" depart="78.96">
        <route edges="left-long-approaching preparation left-short-approaching right-exit"/>
    </vehicle>
    <vehicle id="L4-CV-86" type="L4-CV-Right-" depart="80.84">
        <route edges="left-long-approaching preparation left-short-approaching bottom-exit"/>
    </vehicle>
    <vehicle id="L4-CV-87" type="L4-CV-" depart="81.78">
        <route edges="right-approaching bottom-exit"/>
    </vehicle>
    <vehicle id="L4-CV-90" type="L4-CV-" depart="84.60">
        <route edges="right-approaching closed-lane remerging-lane left-exit"/>
    </vehicle>
    <vehicle id="L4-CV-91" type="L4-CV-" depart="85.54">
        <route edges="left-long-approaching preparation left-short-approaching right-exit"/>
    </vehicle>
    <vehicle id="L4-CV-92" type="L4-CV-" depart="86.48">
        <route edges="bottom-approaching top-exit"/>
    </vehicle>
    <vehicle id="L4-CV-93" type="L4-CV-" depart="87.42">
        <route edges="top-approaching right-exit"/>
    </vehicle>
    <vehicle id="L4-CV-94" type="L4-CV-" depart="88.36">
        <route edges="left-long-approaching preparation left-short-approaching right-exit"/>
    </vehicle>
    <vehicle id="L4-CV-95" type="L4-CV-" depart="89.30">
        <route edges="right-approaching bottom-exit"/>
    </vehicle>
    <vehicle id="L4-CV-96" type="L4-CV-" depart="90.24">
        <route edges="left-long-approaching preparation left-short-approaching right-exit"/>
    </vehicle>
    <vehicle id="L4-CV-98" type="L4-CV-" depart="92.12">
        <route edges="top-approaching closed-lane remerging-lane left-exit"/>
    </vehicle>
    <vehicle id="L4-CV-99" type="L4-CV-" depart="93.06">
        <route edges="right-approaching top-exit"/>
    </vehicle>
    <vehicle id="L4-CV-100" type="L4-CV-" depart="94.00">
        <route edges="right-approaching closed-lane remerging-lane left-exit"/>
    </vehicle>
    <vehicle id="L4-CV-101" type="L4-CV-" depart="94.94">
        <route edges="top-approaching closed-lane remerging-lane left-exit"/>
    </vehicle>
    <vehicle id="L4-CV-102" type="L4-CV-" depart="95.88">
        <route edges="bottom-approaching right-exit"/>
    </vehicle>
    <vehicle id="L4-CV-103" type="L4-CV-" depart="96.82">
        <route edges="bottom-approaching closed-lane remerging-lane left-exit"/>
    </vehicle>
    <vehicle id="L4-CV-104" type="L4-CV-" depart="97.76">
        <route edges="top-approaching right-exit"/>
    </vehicle>
    <vehicle id="L4-CV-105" type="L4-CV-" depart="98.70">
        <route edges="bottom-approaching closed-lane remerging-lane left-exit"/>
    </vehicle>
    <vehicle id="L4-CV-107" type="L4-CV-" depart="100.58">
        <route edges="bottom-approaching right-exit"/>
    </vehicle>
    <vehicle id="L4-CV-108" type="L4-CV-" depart="101.52">
        <route edges="bottom-approaching closed-lane remerging-lane left-exit"/>
    </vehicle>
    <vehicle id="L4-CV-109" type="L4-CV-Left-" depart="102.46">
        <route edges="left-long-approaching preparation"/>
    </vehicle>
    <vehicle id="L4-CV-110" type="L4-CV-" depart="103.40">
        <route edges="bottom-approaching top-exit"/>
    </vehicle>
    <vehicle id="L4-CV-111" type="L4-CV-" depart="104.34">
        <route edges="bottom-approaching right-exit"/>
    </vehicle>
    <vehicle id="L4-CV-113" type="L4-CV-" depart="106.22">
        <route edges="top-approaching closed-lane remerging-lane left-exit"/>
    </vehicle>
    <vehicle id="L4-CV-115" type="L4-CV-" depart="108.10">
        <route edges="bottom-approaching top-exit"/>
    </vehicle>
    <vehicle id="L4-CV-116" type="L4-CV-" depart="109.04">
        <route edges="right-approaching top-exit"/>
    </vehicle>
    <vehicle id="L4-CV-117" type="L4-CV-" depart="109.98">
        <route edges="right-approaching bottom-exit"/>
    </vehicle>
    <vehicle id="L4-CV-118" type="L4-CV-" depart="110.92">
        <route edges="right-approaching top-exit"/>
    </vehicle>
    <vehicle id="L4-CV-121" type="L4-CV-" depart="113.74">
        <route edges="top-approaching closed-lane remerging-lane left-exit"/>
    </vehicle>
    <vehicle id="L4-CV-122" type="L4-CV-" depart="114.68">
        <route edges="right-approaching closed-lane remerging-lane left-exit"/>
    </vehicle>
    <vehicle id="L4-CV-125" type="L4-CV-Right-" depart="117.50">
        <route edges="left-long-approaching preparation left-short-approaching bottom-exit"/>
    </vehicle>
    <vehicle id="L4-CV-127" type="L4-CV-" depart="119.38">
        <route edges="left-long-approaching preparation left-short-approaching right-exit"/>
    </vehicle>
    <vehicle id="L4-CV-128" type="L4-CV-" depart="120.32">
        <route edges="top-approaching right-exit"/>
    </vehicle>
    <vehicle id="L4-CV-129" type="L4-CV-" depart="121.26">
        <route edges="top-approaching bottom-exit"/>
    </vehicle>
    <vehicle id="L4-CV-130" type="L4-CV-Left-" depart="122.20">
        <route edges="left-long-approaching preparation"/>
    </vehicle>
    <vehicle id="L4-CV-131" type="L4-CV-" depart="123.14">
        <route edges="bottom-approaching closed-lane remerging-lane left-exit"/>
    </vehicle>
    <vehicle id="L4-CV-134" type="L4-CV-" depart="125.96">
        <route edges="right-approaching bottom-exit"/>
    </vehicle>
    <vehicle id="L4-CV-135" type="L4-CV-Right-" depart="126.90">
        <route edges="left-long-approaching preparation left-short-approaching bottom-exit"/>
    </vehicle>
    <vehicle id="L4-CV-137" type="L4-CV-" depart="128.78">
        <route edges="left-long-approaching preparation left-short-approaching right-exit"/>
    </vehicle>
    <vehicle id="L4-CV-138" type="L4-CV-" depart="129.72">
        <route edges="bottom-approaching right-exit"/>
    </vehicle>
    <vehicle id="L4-CV-140" type="L4-CV-" depart="131.60">
        <route edges="bottom-approaching right-exit"/>
    </vehicle>
    <vehicle id="L4-CV-141" type="L4-CV-" depart="132.54">
        <route edges="right-approaching closed-lane remerging-lane left-exit"/>
    </vehicle>
    <vehicle id="L4-CV-142" type="L4-CV-" depart="133.48">
        <route edges="top-approaching closed-lane remerging-lane left-exit"/>
    </vehicle>
    <vehicle id="L4-CV-143" type="L4-CV-" depart="134.42">
        <route edges="right-approaching closed-lane remerging-lane left-exit"/>
    </vehicle>
    <vehicle id="L4-CV-145" type="L4-CV-" depart="136.30">
        <route edges="right-approaching bottom-exit"/>
    </vehicle>
    <vehicle id="L4-CV-146" type="L4-CV-Right-" depart="137.24">
        <route edges="left-long-approaching preparation left-short-approaching bottom-exit"/>
    </vehicle>
    <vehicle id="L4-CV-147" type="L4-CV-" depart="138.18">
        <route edges="right-approaching top-exit"/>
    </vehicle>
    <vehicle id="L4-CV-148" type="L4-CV-" depart="139.12">
        <route edges="bottom-approaching right-exit"/>
    </vehicle>
    <vehicle id="L4-CV-150" type="L4-CV-" depart="141.00">
        <route edges="right-approaching top-exit"/>
    </vehicle>
    <vehicle id="L4-CV-151" type="L4-CV-" depart="141.94">
        <route edges="right-approaching closed-lane remerging-lane left-exit"/>
    </vehicle>
    <vehicle id="L4-CV-152" type="L4-CV-" depart="142.88">
        <route edges="top-approaching closed-lane remerging-lane left-exit"/>
    </vehicle>
    <vehicle id="L4-CV-155" type="L4-CV-" depart="145.70">
        <route edges="bottom-approaching right-exit"/>
    </vehicle>
    <vehicle id="L4-CV-156" type="L4-CV-" depart="146.64">
        <route edges="left-long-approaching preparation left-short-approaching right-exit"/>
    </vehicle>
    <vehicle id="L4-CV-157" type="L4-CV-" depart="147.58">
        <route edges="top-approaching right-exit"/>
    </vehicle>
    <vehicle id="L4-CV-158" type="L4-CV-" depart="148.52">
        <route edges="bottom-approaching closed-lane remerging-lane left-exit"/>
    </vehicle>
    <vehicle id="L4-CV-159" type="L4-CV-" depart="149.46">
        <route edges="right-approaching top-exit"/>
    </vehicle>
    <vehicle id="L4-CV-160" type="L4-CV-" depart="150.40">
        <route edges="right-approaching top-exit"/>
    </vehicle>
    <vehicle id="L4-CV-161" type="L4-CV-" depart="151.34">
        <route edges="bottom-approaching top-exit"/>
    </vehicle>
    <vehicle id="L4-CV-164" type="L4-CV-" depart="154.16">
        <route edges="bottom-approaching top-exit"/>
    </vehicle>
    <vehicle id="L4-CV-165" type="L4-CV-" depart="155.10">
        <route edges="top-approaching bottom-exit"/>
    </vehicle>
    <vehicle id="L4-CV-167" type="L4-CV-" depart="156.98">
        <route edges="bottom-approaching top-exit"/>
    </vehicle>
    <vehicle id="L4-CV-168" type="L4-CV-" depart="157.92">
        <route edges="bottom-approaching right-exit"/>
    </vehicle>
    <vehicle id="L4-CV-170" type="L4-CV-" depart="159.80">
        <route edges="right-approaching closed-lane remerging-lane left-exit"/>
    </vehicle>
    <vehicle id="L4-CV-171" type="L4-CV-" depart="160.74">
        <route edges="bottom-approaching top-exit"/>
    </vehicle>
    <vehicle id="L4-CV-173" type="L4-CV-Left-" depart="162.62">
        <route edges="left-long-approaching preparation"/>
    </vehicle>
    <vehicle id="L4-CV-174" type="L4-CV-" depart="163.56">
        <route edges="right-approaching top-exit"/>
    </vehicle>
    <vehicle id="L4-CV-175" type="L4-CV-" depart="164.50">
        <route edges="left-long-approaching preparation left-short-approaching right-exit"/>
    </vehicle>
    <vehicle id="L4-CV-177" type="L4-CV-Right-" depart="166.38">
        <route edges="left-long-approaching preparation left-short-approaching bottom-exit"/>
    </vehicle>
    <vehicle id="L4-CV-178" type="L4-CV-" depart="167.32">
        <route edges="bottom-approaching top-exit"/>
    </vehicle>
    <vehicle id="L4-CV-179" type="L4-CV-" depart="168.26">
        <route edges="bottom-approaching right-exit"/>
    </vehicle>
    <vehicle id="L4-CV-180" type="L4-CV-" depart="169.20">
        <route edges="top-approaching closed-lane remerging-lane left-exit"/>
    </vehicle>
    <vehicle id="L4-CV-181" type="L4-CV-" depart="170.14">
        <route edges="right-approaching top-exit"/>
    </vehicle>
    <vehicle id="L4-CV-182" type="L4-CV-" depart="171.08">
        <route edges="top-approaching bottom-exit"/>
    </vehicle>
    <vehicle id="L4-CV-183" type="L4-CV-" depart="172.02">
        <route edges="bottom-approaching closed-lane remerging-lane left-exit"/>
    </vehicle>
    <vehicle id="L4-CV-185" type="L4-CV-" depart="173.90">
        <route edges="bottom-approaching right-exit"/>
    </vehicle>
    <vehicle id="L4-CV-186" type="L4-CV-" depart="174.84">
        <route edges="top-approaching closed-lane remerging-lane left-exit"/>
    </vehicle>
    <vehicle id="L4-CV-187" type="L4-CV-" depart="175.78">
        <route edges="right-approaching closed-lane remerging-lane left-exit"/>
    </vehicle>
    <vehicle id="L4-CV-188" type="L4-CV-Left-" depart="176.72">
        <route edges="left-long-approaching preparation"/>
    </vehicle>
    <vehicle id="L4-CV-189" type="L4-CV-" depart="177.66">
        <route edges="left-long-approaching preparation left-short-approaching right-exit"/>
    </vehicle>
    <vehicle id="L4-CV-190" type="L4-CV-" depart="178.60">
        <route edges="left-long-approaching preparation left-short-approaching right-exit"/>
    </vehicle>
    <vehicle id="L4-CV-191" type="L4-CV-" depart="179.54">
        <route edges="top-approaching bottom-exit"/>
    </vehicle>
    <vehicle id="L4-CV-192" type="L4-CV-" depart="180.48">
        <route edges="top-approaching closed-lane remerging-lane left-exit"/>
    </vehicle>
    <vehicle id="L4-CV-193" type="L4-CV-" depart="181.42">
        <route edges="right-approaching top-exit"/>
    </vehicle>
    <vehicle id="L4-CV-194" type="L4-CV-" depart="182.36">
        <route edges="right-approaching closed-lane remerging-lane left-exit"/>
    </vehicle>
    <vehicle id="L4-CV-195" type="L4-CV-" depart="183.30">
        <route edges="top-approaching bottom-exit"/>
    </vehicle>
    <vehicle id="L4-CV-196" type="L4-CV-" depart="184.24">
        <route edges="right-approaching closed-lane remerging-lane left-exit"/>
    </vehicle>
    <vehicle id="L4-CV-197" type="L4-CV-" depart="185.18">
        <route edges="right-approaching top-exit"/>
    </vehicle>
    <vehicle id="L4-CV-198" type="L4-CV-" depart="186.12">
        <route edges="top-approaching right-exit"/>
    </vehicle>
    <vehicle id="L4-CV-199" type="L4-CV-Right-" depart="187.06">
        <route edges="left-long-approaching preparation left-short-approaching bottom-exit"/>
    </vehicle>
    <vehicle id="L4-CV-200" type="L4-CV-Right-" depart="188.00">
        <route edges="left-long-approaching preparation left-short-approaching bottom-exit"/>
    </vehicle>
    <vehicle id="L4-CV-201" type="L4-CV-Left-" depart="188.94">
        <route edges="left-long-approaching preparation"/>
    </vehicle>
    <vehicle id="L4-CV-202" type="L4-CV-" depart="189.88">
        <route edges="bottom-approaching top-exit"/>
    </vehicle>
    <vehicle id="L4-CV-204" type="L4-CV-Right-" depart="191.76">
        <route edges="left-long-approaching preparation left-short-approaching bottom-exit"/>
    </vehicle>
    <vehicle id="L4-CV-205" type="L4-CV-Right-" depart="192.70">
        <route edges="left-long-approaching preparation left-short-approaching bottom-exit"/>
    </vehicle>
    <vehicle id="L4-CV-208" type="L4-CV-" depart="195.52">
        <route edges="left-long-approaching preparation left-short-approaching right-exit"/>
    </vehicle>
    <vehicle id="L4-CV-209" type="L4-CV-" depart="196.46">
        <route edges="top-approaching closed-lane remerging-lane left-exit"/>
    </vehicle>
    <vehicle id="L4-CV-211" type="L4-CV-" depart="198.34">
        <route edges="bottom-approaching right-exit"/>
    </vehicle>
    <vehicle id="L4-CV-213" type="L4-CV-" depart="200.22">
        <route edges="top-approaching bottom-exit"/>
    </vehicle>
    <vehicle id="L4-CV-214" type="L4-CV-" depart="201.16">
        <route edges="top-approaching right-exit"/>
    </vehicle>
    <vehicle id="L4-CV-215" type="L4-CV-Left-" depart="202.10">
        <route edges="left-long-approaching preparation"/>
    </vehicle>
    <vehicle id="L4-CV-216" type="L4-CV-Left-" depart="203.04">
        <route edges="left-long-approaching preparation"/>
    </vehicle>
    <vehicle id="L4-CV-218" type="L4-CV-" depart="204.92">
        <route edges="right-approaching top-exit"/>
    </vehicle>
    <vehicle id="L4-CV-222" type="L4-CV-" depart="208.68">
        <route edges="left-long-approaching preparation left-short-approaching right-exit"/>
    </vehicle>
    <vehicle id="L4-CV-223" type="L4-CV-" depart="209.62">
        <route edges="right-approaching closed-lane remerging-lane left-exit"/>
    </vehicle>
    <vehicle id="L4-CV-224" type="L4-CV-Right-" depart="210.56">
        <route edges="left-long-approaching preparation left-short-approaching bottom-exit"/>
    </vehicle>
    <vehicle id="L4-CV-225" type="L4-CV-" depart="211.50">
        <route edges="top-approaching closed-lane remerging-lane left-exit"/>
    </vehicle>
    <vehicle id="L4-CV-226" type="L4-CV-Left-" depart="212.44">
        <route edges="left-long-approaching preparation"/>
    </vehicle>
    <vehicle id="L4-CV-227" type="L4-CV-" depart="213.38">
        <route edges="bottom-approaching top-exit"/>
    </vehicle>
    <vehicle id="L4-CV-231" type="L4-CV-" depart="217.14">
        <route edges="top-approaching closed-lane remerging-lane left-exit"/>
    </vehicle>
    <vehicle id="L4-CV-232" type="L4-CV-" depart="218.08">
        <route edges="right-approaching bottom-exit"/>
    </vehicle>
    <vehicle id="L4-CV-233" type="L4-CV-" depart="219.02">
        <route edges="top-approaching closed-lane remerging-lane left-exit"/>
    </vehicle>
    <vehicle id="L4-CV-234" type="L4-CV-" depart="219.96">
        <route edges="left-long-approaching preparation left-short-approaching right-exit"/>
    </vehicle>
    <vehicle id="L4-CV-235" type="L4-CV-" depart="220.90">
        <route edges="bottom-approaching closed-lane remerging-lane left-exit"/>
    </vehicle>
    <vehicle id="L4-CV-236" type="L4-CV-" depart="221.84">
        <route edges="top-approaching bottom-exit"/>
    </vehicle>
    <vehicle id="L4-CV-241" type="L4-CV-" depart="226.54">
        <route edges="right-approaching closed-lane remerging-lane left-exit"/>
    </vehicle>
    <vehicle id="L4-CV-242" type="L4-CV-Left-" depart="227.48">
        <route edges="left-long-approaching preparation"/>
    </vehicle>
    <vehicle id="L4-CV-244" type="L4-CV-" depart="229.36">
        <route edges="top-approaching closed-lane remerging-lane left-exit"/>
    </vehicle>
    <vehicle id="L4-CV-245" type="L4-CV-" depart="230.30">
        <route edges="top-approaching bottom-exit"/>
    </vehicle>
    <vehicle id="L4-CV-246" type="L4-CV-" depart="231.24">
        <route edges="right-approaching top-exit"/>
    </vehicle>
    <vehicle id="L4-CV-247" type="L4-CV-Left-" depart="232.18">
        <route edges="left-long-approaching preparation"/>
    </vehicle>
    <vehicle id="L4-CV-248" type="L4-CV-" depart="233.12">
        <route edges="right-approaching closed-lane remerging-lane left-exit"/>
    </vehicle>
    <vehicle id="L4-CV-249" type="L4-CV-" depart="234.06">
        <route edges="top-approaching closed-lane remerging-lane left-exit"/>
    </vehicle>
    <vehicle id="L4-CV-250" type="L4-CV-" depart="235.00">
        <route edges="left-long-approaching preparation left-short-approaching right-exit"/>
    </vehicle>
    <vehicle id="L4-CV-251" type="L4-CV-Left-" depart="235.94">
        <route edges="left-long-approaching preparation"/>
    </vehicle>
    <vehicle id="L4-CV-253" type="L4-CV-" depart="237.82">
        <route edges="right-approaching top-exit"/>
    </vehicle>
    <vehicle id="L4-CV-256" type="L4-CV-" depart="240.64">
        <route edges="right-approaching bottom-exit"/>
    </vehicle>
    <vehicle id="L4-CV-257" type="L4-CV-" depart="241.58">
        <route edges="bottom-approaching top-exit"/>
    </vehicle>
    <vehicle id="L4-CV-258" type="L4-CV-" depart="242.52">
        <route edges="bottom-approaching top-exit"/>
    </vehicle>
    <vehicle id="L4-CV-259" type="L4-CV-" depart="243.46">
        <route edges="right-approaching top-exit"/>
    </vehicle>
    <vehicle id="L4-CV-260" type="L4-CV-" depart="244.40">
        <route edges="bottom-approaching closed-lane remerging-lane left-exit"/>
    </vehicle>
    <vehicle id="L4-CV-261" type="L4-CV-" depart="245.34">
        <route edges="top-approaching bottom-exit"/>
    </vehicle>
    <vehicle id="L4-CV-262" type="L4-CV-" depart="246.28">
        <route edges="bottom-approaching closed-lane remerging-lane left-exit"/>
    </vehicle>
    <vehicle id="L4-CV-264" type="L4-CV-" depart="248.16">
        <route edges="right-approaching bottom-exit"/>
    </vehicle>
    <vehicle id="L4-CV-265" type="L4-CV-" depart="249.10">
        <route edges="top-approaching right-exit"/>
    </vehicle>
    <vehicle id="L4-CV-266" type="L4-CV-" depart="250.04">
        <route edges="bottom-approaching top-exit"/>
    </vehicle>
    <vehicle id="L4-CV-267" type="L4-CV-" depart="250.98">
        <route edges="bottom-approaching closed-lane remerging-lane left-exit"/>
    </vehicle>
    <vehicle id="L4-CV-268" type="L4-CV-" depart="251.92">
        <route edges="right-approaching bottom-exit"/>
    </vehicle>
    <vehicle id="L4-CV-269" type="L4-CV-Right-" depart="252.86">
        <route edges="left-long-approaching preparation left-short-approaching bottom-exit"/>
    </vehicle>
    <vehicle id="L4-CV-270" type="L4-CV-" depart="253.80">
        <route edges="bottom-approaching top-exit"/>
    </vehicle>