<additional>
    <e1Detector id="det_0" lane="preparation_2" pos="60" freq="1000" file="left-approaching.out.xml"/>
    <e1Detector id="det_1" lane="preparation_2" pos="125" freq="1000" file="left-approaching.out.xml"/>
    <e1Detector id="det_2" lane="preparation_1" pos="125" freq="1000" file="left-short-approaching.out.xml"/>
    <e1Detector id="det_3" lane="preparation_0" pos="120" freq="1000" file="left-short-approaching.out.xml"/>
</additional>