<additional>
    <e1Detector id="det_0" lane="preparation_2" pos="60" freq="1000" file="left-approaching.out.xml"/>
    <e1Detector id="det_1" lane="preparation_2" pos="128" freq="1000" file="left-approaching.out.xml"/>
    <e1Detector id="det_2" lane="preparation_1" pos="125" freq="1000" file="left-short-approaching.out.xml"/>
    <e1Detector id="det_3" lane="preparation_0" pos="120" freq="1000" file="left-short-approaching.out.xml"/>


    <e1Detector id="left-long-approaching_0" lane="left-long-approaching_0" pos="450" freq="1000" file="left-short-approaching.out.xml"/>
    <e1Detector id="left-long-approaching_1" lane="left-long-approaching_1" pos="450" freq="1000" file="left-short-approaching.out.xml"/>
    <e1Detector id="left-long-approaching_2" lane="left-long-approaching_2" pos="450" freq="1000" file="left-short-approaching.out.xml"/>
    
</additional>