<?xml version="1.0" encoding="UTF-8"?>

<!-- generated on 03/23/21 17:28:14 by Eclipse SUMO sumo Version 1.8.0
<configuration xmlns:xsi="http://www.w3.org/2001/XMLSchema-instance" xsi:noNamespaceSchemaLocation="http://sumo.dlr.de/xsd/sumoConfiguration.xsd">

    <input>
        <net-file value="Collision\RealTMSPenetration3\../CollisionIntersection.net.xml"/>
        <route-files value="Collision\RealTMSPenetration3\../CrashedVehicleRoutes.rou.xml,Collision\RealTMSPenetration3\Route-Files/L4-CV-Route.rou.xml,Collision\RealTMSPenetration3\Route-Files/L4-AV-Route.rou.xml,Collision\RealTMSPenetration3\Route-Files/L2-CV-Route.rou.xml,Collision\RealTMSPenetration3\Route-Files/L2-AV-Route.rou.xml,Collision\RealTMSPenetration3\Route-Files/L0-HDV-Route.rou.xml"/>
        <additional-files value="Collision\RealTMSPenetration3\../Additional-Files/Collision-Detectors.add.xml,Collision\RealTMSPenetration3\../Additional-Files/Collision-TMS-Rerouters.add.xml,Collision\RealTMSPenetration3\PreparingVehicleModels/Vehicle-Models/L4-CV.add.xml,Collision\RealTMSPenetration3\PreparingVehicleModels/Vehicle-Models/L4-CV-Left.add.xml,Collision\RealTMSPenetration3\PreparingVehicleModels/Vehicle-Models/L4-CV-Right.add.xml,Collision\RealTMSPenetration3\PreparingVehicleModels/Vehicle-Models/L4-AV.add.xml,Collision\RealTMSPenetration3\PreparingVehicleModels/Vehicle-Models/L4-AV-Left.add.xml,Collision\RealTMSPenetration3\PreparingVehicleModels/Vehicle-Models/L4-AV-Right.add.xml,Collision\RealTMSPenetration3\PreparingVehicleModels/Vehicle-Models/L2-CV.add.xml,Collision\RealTMSPenetration3\PreparingVehicleModels/Vehicle-Models/L2-CV-Left.add.xml,Collision\RealTMSPenetration3\PreparingVehicleModels/Vehicle-Models/L2-CV-Right.add.xml,Collision\RealTMSPenetration3\PreparingVehicleModels/Vehicle-Models/L2-AV.add.xml,Collision\RealTMSPenetration3\PreparingVehicleModels/Vehicle-Models/L2-AV-Left.add.xml,Collision\RealTMSPenetration3\PreparingVehicleModels/Vehicle-Models/L2-AV-Right.add.xml,Collision\RealTMSPenetration3\PreparingVehicleModels/Vehicle-Models/L0-HDV.add.xml,Collision\RealTMSPenetration3\PreparingVehicleModels/Vehicle-Models/L0-HDV-Left.add.xml,Collision\RealTMSPenetration3\PreparingVehicleModels/Vehicle-Models/L0-HDV-Straight.add.xml,Collision\RealTMSPenetration3\../Additional-Files/Collision-Traffic-lights.add.xml,Collision\RealTMSPenetration3\../Additional-Files/Collision-Traffic-Signs.add.xml"/>
    </input>

    <output>
        <tripinfo-output value="Collision\RealTMSPenetration3\Output-Files\TripInfo.xml"/>
    </output>

    <time>
        <begin value="0"/>
        <step-length value="0.1"/>
    </time>

    <processing>
        <ignore-route-errors value="true"/>
        <waiting-time-memory value="300"/>
        <default.action-step-length value="0.1"/>
    </processing>

    <emissions>
        <device.emissions.probability value="1"/>
    </emissions>

    <traci_server>
        <remote-port value="51348"/>
    </traci_server>

    <gui_only>
        <start value="true"/>
        <tracker-interval value="0.1"/>
    </gui_only>

</configuration>
-->

<tripinfos xmlns:xsi="http://www.w3.org/2001/XMLSchema-instance" xsi:noNamespaceSchemaLocation="http://sumo.dlr.de/xsd/tripinfo_file.xsd">
    <tripinfo id="L2-CV-1" depart="129.00" departLane="right-approaching_0" departPos="5.10" departSpeed="0.00" departDelay="0.00" arrival="196.30" arrivalLane="bottom-exit_0" arrivalPos="486.40" arrivalSpeed="17.75" duration="67.30" routeLength="992.21" waitingTime="0.00" waitingCount="0" stopTime="0.00" timeLoss="10.45" rerouteNo="0" devices="tripinfo_L2-CV-1 emissions_L2-CV-1 ssm_L2-CV-1 toc_L2-CV-1 driverstateL2-CV-1" vType="L2-CV-47" speedFactor="1.07" vaporized="">
        <emissions CO_abs="2357.957348" CO2_abs="245344.453020" HC_abs="13.925086" PMx_abs="3.413712" NOx_abs="88.732983" fuel_abs="105.463389" electricity_abs="0"/>
    </tripinfo>
    <tripinfo id="L4-CV-5" depart="143.30" departLane="right-approaching_0" departPos="5.10" departSpeed="0.00" departDelay="0.05" arrival="212.50" arrivalLane="bottom-exit_0" arrivalPos="486.40" arrivalSpeed="16.52" duration="69.20" routeLength="992.21" waitingTime="0.00" waitingCount="0" stopTime="0.00" timeLoss="8.10" rerouteNo="0" devices="tripinfo_L4-CV-5 emissions_L4-CV-5 ssm_L4-CV-5 toc_L4-CV-5 driverstateL4-CV-5" vType="L4-CV-12" speedFactor="0.99" vaporized="">
        <emissions CO_abs="1724.836667" CO2_abs="225972.823783" HC_abs="10.843629" PMx_abs="2.704941" NOx_abs="79.004021" fuel_abs="97.136626" electricity_abs="0"/>
    </tripinfo>
    <tripinfo id="L2-AV-0" depart="123.00" departLane="bottom-approaching_0" departPos="5.10" departSpeed="0.00" departDelay="3.00" arrival="237.30" arrivalLane="right-exit_0" arrivalPos="486.40" arrivalSpeed="16.59" duration="114.30" routeLength="979.43" waitingTime="39.60" waitingCount="1" stopTime="0.00" timeLoss="54.32" rerouteNo="0" devices="tripinfo_L2-AV-0 emissions_L2-AV-0 ssm_L2-AV-0 toc_L2-AV-0 driverstateL2-AV-0" vType="L2-AV-56" speedFactor="1.00" vaporized="">
        <emissions CO_abs="9196.362383" CO2_abs="347232.758724" HC_abs="47.469097" PMx_abs="5.867386" NOx_abs="135.837337" fuel_abs="149.264203" electricity_abs="0"/>
    </tripinfo>
    <tripinfo id="L0-HDV-1" depart="138.00" departLane="bottom-approaching_0" departPos="5.10" departSpeed="0.00" departDelay="0.00" arrival="238.20" arrivalLane="top-exit_1" arrivalPos="486.40" arrivalSpeed="17.32" duration="100.20" routeLength="994.90" waitingTime="26.50" waitingCount="1" stopTime="0.00" timeLoss="42.81" rerouteNo="0" devices="tripinfo_L0-HDV-1 emissions_L0-HDV-1 ssm_L0-HDV-1" vType="L0-HDV-32" speedFactor="1.04" vaporized="">
        <emissions CO_abs="7881.065191" CO2_abs="312697.690167" HC_abs="43.182569" PMx_abs="6.116177" NOx_abs="129.826870" fuel_abs="134.417258" electricity_abs="0"/>
    </tripinfo>
    <tripinfo id="L4-AV-3" depart="147.00" departLane="top-approaching_0" departPos="5.10" departSpeed="0.00" departDelay="0.00" arrival="238.90" arrivalLane="bottom-exit_0" arrivalPos="486.40" arrivalSpeed="16.22" duration="91.90" routeLength="994.90" waitingTime="15.30" waitingCount="1" stopTime="0.00" timeLoss="30.42" rerouteNo="0" devices="tripinfo_L4-AV-3 emissions_L4-AV-3 ssm_L4-AV-3 toc_L4-AV-3 driverstateL4-AV-3" vType="L4-AV-11" speedFactor="0.97" vaporized="">
        <emissions CO_abs="5150.217942" CO2_abs="283999.679544" HC_abs="27.357139" PMx_abs="4.170397" NOx_abs="106.188649" fuel_abs="122.081240" electricity_abs="0"/>
    </tripinfo>
    <tripinfo id="L0-HDV-3" depart="174.00" departLane="top-approaching_0" departPos="5.10" departSpeed="0.00" departDelay="0.00" arrival="241.30" arrivalLane="bottom-exit_0" arrivalPos="486.40" arrivalSpeed="15.60" duration="67.30" routeLength="994.90" waitingTime="0.00" waitingCount="0" stopTime="0.00" timeLoss="3.65" rerouteNo="0" devices="tripinfo_L0-HDV-3 emissions_L0-HDV-3 ssm_L0-HDV-3" vType="L0-HDV-29" speedFactor="0.94" vaporized="">
        <emissions CO_abs="1760.031680" CO2_abs="172425.813415" HC_abs="11.950950" PMx_abs="2.813430" NOx_abs="67.057845" fuel_abs="74.118252" electricity_abs="0"/>
    </tripinfo>
    <tripinfo id="L4-AV-1" depart="129.00" departLane="bottom-approaching_0" departPos="5.10" departSpeed="0.00" departDelay="0.00" arrival="241.60" arrivalLane="right-exit_0" arrivalPos="486.40" arrivalSpeed="15.25" duration="112.60" routeLength="979.43" waitingTime="0.00" waitingCount="0" stopTime="0.00" timeLoss="47.32" rerouteNo="0" devices="tripinfo_L4-AV-1 emissions_L4-AV-1 ssm_L4-AV-1 toc_L4-AV-1 driverstateL4-AV-1" vType="L4-AV-72" speedFactor="0.91" vaporized="">
        <emissions CO_abs="2508.632753" CO2_abs="226594.831739" HC_abs="14.280913" PMx_abs="2.829892" NOx_abs="81.440250" fuel_abs="97.404320" electricity_abs="0"/>
    </tripinfo>
    <tripinfo id="L4-AV-0" depart="120.00" departLane="bottom-approaching_0" departPos="5.10" departSpeed="0.00" departDelay="0.00" arrival="241.70" arrivalLane="top-exit_0" arrivalPos="486.40" arrivalSpeed="13.99" duration="121.70" routeLength="994.90" waitingTime="40.00" waitingCount="1" stopTime="0.00" timeLoss="50.51" rerouteNo="0" devices="tripinfo_L4-AV-0 emissions_L4-AV-0 ssm_L4-AV-0 toc_L4-AV-0 driverstateL4-AV-0" vType="L4-AV-74" speedFactor="0.84" vaporized="">
        <emissions CO_abs="8582.978707" CO2_abs="333708.419749" HC_abs="44.953335" PMx_abs="5.108790" NOx_abs="128.223942" fuel_abs="143.451123" electricity_abs="0"/>
    </tripinfo>
    <tripinfo id="L4-AV-6" depart="174.00" departLane="bottom-approaching_0" departPos="5.10" departSpeed="0.00" departDelay="0.00" arrival="244.20" arrivalLane="top-exit_0" arrivalPos="486.40" arrivalSpeed="16.42" duration="70.20" routeLength="994.90" waitingTime="0.00" waitingCount="0" stopTime="0.00" timeLoss="9.50" rerouteNo="0" devices="tripinfo_L4-AV-6 emissions_L4-AV-6 ssm_L4-AV-6 toc_L4-AV-6 driverstateL4-AV-6" vType="L4-AV-85" speedFactor="0.98" vaporized="">
        <emissions CO_abs="1916.249154" CO2_abs="198382.994882" HC_abs="11.626481" PMx_abs="2.678028" NOx_abs="72.256771" fuel_abs="85.276699" electricity_abs="0"/>
    </tripinfo>
    <tripinfo id="L2-CV-3" depart="147.00" departLane="bottom-approaching_0" departPos="5.10" departSpeed="0.00" departDelay="0.00" arrival="245.50" arrivalLane="right-exit_0" arrivalPos="486.40" arrivalSpeed="14.90" duration="98.50" routeLength="979.43" waitingTime="0.00" waitingCount="0" stopTime="0.00" timeLoss="31.69" rerouteNo="0" devices="tripinfo_L2-CV-3 emissions_L2-CV-3 ssm_L2-CV-3 toc_L2-CV-3 driverstateL2-CV-3" vType="L2-CV-15" speedFactor="0.89" vaporized="">
        <emissions CO_abs="2933.019142" CO2_abs="246826.483595" HC_abs="17.257570" PMx_abs="2.997233" NOx_abs="88.729842" fuel_abs="106.101519" electricity_abs="0"/>
    </tripinfo>
    <tripinfo id="L2-AV-3" depart="177.20" departLane="bottom-approaching_0" departPos="5.10" departSpeed="0.00" departDelay="3.20" arrival="246.60" arrivalLane="top-exit_0" arrivalPos="486.40" arrivalSpeed="16.86" duration="69.40" routeLength="994.90" waitingTime="0.00" waitingCount="0" stopTime="0.00" timeLoss="10.29" rerouteNo="0" devices="tripinfo_L2-AV-3 emissions_L2-AV-3 ssm_L2-AV-3 toc_L2-AV-3 driverstateL2-AV-3" vType="L2-AV-0" speedFactor="1.01" vaporized="">
        <emissions CO_abs="1904.037653" CO2_abs="212684.984895" HC_abs="11.412918" PMx_abs="2.677262" NOx_abs="75.264649" fuel_abs="91.424733" electricity_abs="0"/>
    </tripinfo>
    <tripinfo id="L4-CV-2" depart="129.30" departLane="top-approaching_0" departPos="5.10" departSpeed="0.00" departDelay="0.00" arrival="254.90" arrivalLane="right-exit_0" arrivalPos="486.40" arrivalSpeed="16.26" duration="125.60" routeLength="992.21" waitingTime="42.10" waitingCount="3" stopTime="0.00" timeLoss="63.60" rerouteNo="0" devices="tripinfo_L4-CV-2 emissions_L4-CV-2 ssm_L4-CV-2 toc_L4-CV-2 driverstateL4-CV-2" vType="L4-CV-89" speedFactor="0.98" vaporized="">
        <emissions CO_abs="10342.429932" CO2_abs="367888.861988" HC_abs="53.122459" PMx_abs="6.274510" NOx_abs="144.971328" fuel_abs="158.143980" electricity_abs="0"/>
    </tripinfo>
    <tripinfo id="L4-CV-8" depart="157.20" departLane="top-approaching_0" departPos="5.10" departSpeed="0.00" departDelay="0.00" arrival="259.40" arrivalLane="right-exit_0" arrivalPos="486.40" arrivalSpeed="15.61" duration="102.20" routeLength="992.21" waitingTime="6.40" waitingCount="21" stopTime="0.00" timeLoss="37.60" rerouteNo="0" devices="tripinfo_L4-CV-8 emissions_L4-CV-8 ssm_L4-CV-8 toc_L4-CV-8 driverstateL4-CV-8" vType="L4-CV-81" speedFactor="0.94" vaporized="">
        <emissions CO_abs="5461.298725" CO2_abs="292526.527038" HC_abs="29.600229" PMx_abs="4.184350" NOx_abs="109.743511" fuel_abs="125.746958" electricity_abs="0"/>
    </tripinfo>
    <tripinfo id="L4-AV-2" depart="141.10" departLane="bottom-approaching_0" departPos="5.10" departSpeed="0.00" departDelay="3.10" arrival="267.40" arrivalLane="left-exit_0" arrivalPos="820.00" arrivalSpeed="17.04" duration="126.30" routeLength="1392.31" waitingTime="23.60" waitingCount="3" stopTime="0.00" timeLoss="43.58" rerouteNo="0" devices="tripinfo_L4-AV-2 emissions_L4-AV-2 ssm_L4-AV-2 toc_L4-AV-2 driverstateL4-AV-2" vType="L0-HDV-78@L4-AV-2" speedFactor="1.02" vaporized="">
        <emissions CO_abs="7517.831251" CO2_abs="355876.155950" HC_abs="41.343767" PMx_abs="6.161001" NOx_abs="140.401043" fuel_abs="152.978089" electricity_abs="0"/>
    </tripinfo>
    <tripinfo id="L2-CV-4" depart="156.00" departLane="bottom-approaching_0" departPos="5.10" departSpeed="0.00" departDelay="0.00" arrival="273.80" arrivalLane="left-exit_0" arrivalPos="820.00" arrivalSpeed="16.90" duration="117.80" routeLength="1392.31" waitingTime="14.00" waitingCount="2" stopTime="0.00" timeLoss="34.55" rerouteNo="0" devices="tripinfo_L2-CV-4 emissions_L2-CV-4 ssm_L2-CV-4 toc_L2-CV-4 driverstateL2-CV-4" vType="L2-CV-24@L2-CV-4" speedFactor="1.01" vaporized="">
        <emissions CO_abs="4904.916380" CO2_abs="355228.765597" HC_abs="26.683705" PMx_abs="4.896490" NOx_abs="128.652255" fuel_abs="152.699338" electricity_abs="0"/>
    </tripinfo>
    <tripinfo id="L2-CV-0" depart="120.00" departLane="left-long-approaching_0" departPos="5.10" departSpeed="0.00" departDelay="0.00" arrival="279.90" arrivalLane="bottom-exit_0" arrivalPos="486.40" arrivalSpeed="20.01" duration="159.90" routeLength="1379.53" waitingTime="67.90" waitingCount="1" stopTime="0.00" timeLoss="90.08" rerouteNo="0" devices="tripinfo_L2-CV-0 emissions_L2-CV-0 ssm_L2-CV-0 toc_L2-CV-0 driverstateL2-CV-0" vType="L2-CV-Right-0" speedFactor="1.20" vaporized="">
        <emissions CO_abs="14850.946831" CO2_abs="523229.330023" HC_abs="77.802558" PMx_abs="9.694140" NOx_abs="207.479566" fuel_abs="224.919611" electricity_abs="0"/>
    </tripinfo>
    <tripinfo id="L2-AV-1" depart="138.00" departLane="left-long-approaching_0" departPos="5.10" departSpeed="0.00" departDelay="0.00" arrival="280.00" arrivalLane="right-exit_0" arrivalPos="486.40" arrivalSpeed="17.29" duration="142.00" routeLength="1395.23" waitingTime="47.30" waitingCount="1" stopTime="0.00" timeLoss="61.26" rerouteNo="0" devices="tripinfo_L2-AV-1 emissions_L2-AV-1 ssm_L2-AV-1 toc_L2-AV-1 driverstateL2-AV-1" vType="L2-AV-23" speedFactor="1.04" vaporized="">
        <emissions CO_abs="10281.715695" CO2_abs="435886.112709" HC_abs="53.082745" PMx_abs="6.981865" NOx_abs="165.665624" fuel_abs="187.373044" electricity_abs="0"/>
    </tripinfo>
    <tripinfo id="L2-CV-6" depart="174.00" departLane="left-long-approaching_0" departPos="5.10" departSpeed="0.00" departDelay="0.00" arrival="285.00" arrivalLane="top-exit_1" arrivalPos="486.40" arrivalSpeed="17.75" duration="111.00" routeLength="1397.47" waitingTime="10.40" waitingCount="2" stopTime="0.00" timeLoss="31.45" rerouteNo="0" devices="tripinfo_L2-CV-6 emissions_L2-CV-6 ssm_L2-CV-6 toc_L2-CV-6 driverstateL2-CV-6" vType="L2-CV-Left-73@L2-CV-6" speedFactor="1.06" vaporized="">
        <emissions CO_abs="3850.509120" CO2_abs="335882.008435" HC_abs="21.530414" PMx_abs="4.636513" NOx_abs="120.634869" fuel_abs="144.382309" electricity_abs="0"/>
    </tripinfo>
    <tripinfo id="L4-CV-7" depart="152.60" departLane="right-approaching_0" departPos="5.10" departSpeed="0.00" departDelay="0.05" arrival="286.10" arrivalLane="top-exit_0" arrivalPos="486.40" arrivalSpeed="14.64" duration="133.50" routeLength="979.43" waitingTime="49.30" waitingCount="1" stopTime="0.00" timeLoss="65.49" rerouteNo="0" devices="tripinfo_L4-CV-7 emissions_L4-CV-7 ssm_L4-CV-7 toc_L4-CV-7 driverstateL4-CV-7" vType="L4-CV-22" speedFactor="0.88" vaporized="">
        <emissions CO_abs="10863.207100" CO2_abs="367887.598030" HC_abs="55.927598" PMx_abs="6.076237" NOx_abs="144.645346" fuel_abs="158.144182" electricity_abs="0"/>
    </tripinfo>
    <tripinfo id="L4-CV-15" depart="189.80" departLane="left-long-approaching_0" departPos="5.10" departSpeed="0.00" departDelay="0.05" arrival="287.10" arrivalLane="bottom-exit_0" arrivalPos="486.40" arrivalSpeed="16.25" duration="97.30" routeLength="1379.53" waitingTime="0.00" waitingCount="0" stopTime="0.00" timeLoss="11.37" rerouteNo="0" devices="tripinfo_L4-CV-15 emissions_L4-CV-15 ssm_L4-CV-15 toc_L4-CV-15 driverstateL4-CV-15" vType="L4-CV-Right-30" speedFactor="0.98" vaporized="">
        <emissions CO_abs="2083.062575" CO2_abs="293899.448892" HC_abs="12.830637" PMx_abs="3.248456" NOx_abs="100.665280" fuel_abs="126.335771" electricity_abs="0"/>
    </tripinfo>
    <tripinfo id="L2-CV-8" depart="192.00" departLane="right-approaching_0" departPos="5.10" departSpeed="0.00" departDelay="0.00" arrival="287.30" arrivalLane="top-exit_0" arrivalPos="486.40" arrivalSpeed="15.47" duration="95.30" routeLength="979.43" waitingTime="9.80" waitingCount="24" stopTime="0.00" timeLoss="30.97" rerouteNo="0" devices="tripinfo_L2-CV-8 emissions_L2-CV-8 ssm_L2-CV-8 toc_L2-CV-8 driverstateL2-CV-8" vType="L2-CV-57" speedFactor="0.93" vaporized="">
        <emissions CO_abs="4205.053922" CO2_abs="216979.751753" HC_abs="23.167262" PMx_abs="3.371492" NOx_abs="83.802160" fuel_abs="93.271775" electricity_abs="0"/>
    </tripinfo>
    <tripinfo id="L2-AV-2" depart="156.60" departLane="right-approaching_0" departPos="5.10" departSpeed="0.00" departDelay="0.60" arrival="289.20" arrivalLane="bottom-exit_1" arrivalPos="486.40" arrivalSpeed="20.44" duration="132.60" routeLength="992.21" waitingTime="58.10" waitingCount="2" stopTime="0.00" timeLoss="83.19" rerouteNo="0" devices="tripinfo_L2-AV-2 emissions_L2-AV-2 ssm_L2-AV-2 toc_L2-AV-2 driverstateL2-AV-2" vType="L2-AV-99" speedFactor="1.23" vaporized="">
        <emissions CO_abs="13397.475478" CO2_abs="445268.535213" HC_abs="70.542123" PMx_abs="8.777487" NOx_abs="183.177840" fuel_abs="191.406420" electricity_abs="0"/>
    </tripinfo>
    <tripinfo id="L4-AV-8" depart="192.00" departLane="bottom-approaching_0" departPos="5.10" departSpeed="0.00" departDelay="0.00" arrival="289.50" arrivalLane="left-exit_0" arrivalPos="820.00" arrivalSpeed="17.21" duration="97.50" routeLength="1392.31" waitingTime="0.00" waitingCount="0" stopTime="0.00" timeLoss="15.64" rerouteNo="0" devices="tripinfo_L4-AV-8 emissions_L4-AV-8 ssm_L4-AV-8 toc_L4-AV-8 driverstateL4-AV-8" vType="L4-AV-94@L4-AV-8" speedFactor="1.03" vaporized="">
        <emissions CO_abs="2780.858179" CO2_abs="253566.800203" HC_abs="16.521529" PMx_abs="3.583557" NOx_abs="93.130711" fuel_abs="108.998040" electricity_abs="0"/>
    </tripinfo>
    <tripinfo id="L2-AV-4" depart="193.60" departLane="left-long-approaching_0" departPos="5.10" departSpeed="0.00" departDelay="1.60" arrival="289.70" arrivalLane="bottom-exit_0" arrivalPos="486.40" arrivalSpeed="16.92" duration="96.10" routeLength="1379.53" waitingTime="0.00" waitingCount="0" stopTime="0.00" timeLoss="13.58" rerouteNo="0" devices="tripinfo_L2-AV-4 emissions_L2-AV-4 ssm_L2-AV-4 toc_L2-AV-4 driverstateL2-AV-4" vType="L2-AV-Right-32" speedFactor="1.02" vaporized="">
        <emissions CO_abs="2532.770745" CO2_abs="310996.894494" HC_abs="15.455513" PMx_abs="3.988043" NOx_abs="110.681771" fuel_abs="133.684713" electricity_abs="0"/>
    </tripinfo>
    <tripinfo id="L4-CV-16" depart="195.30" departLane="right-approaching_0" departPos="5.10" departSpeed="0.00" departDelay="0.90" arrival="295.80" arrivalLane="top-exit_0" arrivalPos="486.40" arrivalSpeed="14.83" duration="100.50" routeLength="979.43" waitingTime="5.10" waitingCount="17" stopTime="0.00" timeLoss="33.34" rerouteNo="0" devices="tripinfo_L4-CV-16 emissions_L4-CV-16 ssm_L4-CV-16 toc_L4-CV-16 driverstateL4-CV-16" vType="L4-CV-95" speedFactor="0.89" vaporized="">
        <emissions CO_abs="4803.889879" CO2_abs="279661.634964" HC_abs="26.662445" PMx_abs="3.758471" NOx_abs="103.685510" fuel_abs="120.216825" electricity_abs="0"/>
    </tripinfo>
    <tripinfo id="L4-CV-12" depart="176.80" departLane="left-long-approaching_0" departPos="5.10" departSpeed="0.00" departDelay="1.00" arrival="296.30" arrivalLane="top-exit_1" arrivalPos="486.40" arrivalSpeed="16.97" duration="119.50" routeLength="1397.47" waitingTime="5.30" waitingCount="25" stopTime="0.00" timeLoss="36.30" rerouteNo="0" devices="tripinfo_L4-CV-12 emissions_L4-CV-12 ssm_L4-CV-12 toc_L4-CV-12 driverstateL4-CV-12" vType="L4-CV-Left-59@L4-CV-12" speedFactor="1.02" vaporized="">
        <emissions CO_abs="5002.560159" CO2_abs="326256.933274" HC_abs="27.415421" PMx_abs="4.641482" NOx_abs="120.353818" fuel_abs="140.245648" electricity_abs="0"/>
    </tripinfo>
    <tripinfo id="L4-AV-9" depart="201.00" departLane="left-long-approaching_0" departPos="5.10" departSpeed="0.00" departDelay="0.00" arrival="299.50" arrivalLane="top-exit_0" arrivalPos="486.40" arrivalSpeed="16.79" duration="98.50" routeLength="1392.31" waitingTime="3.10" waitingCount="1" stopTime="0.00" timeLoss="14.63" rerouteNo="0" devices="tripinfo_L4-AV-9 emissions_L4-AV-9 ssm_L4-AV-9 toc_L4-AV-9 driverstateL4-AV-9" vType="L4-AV-Left-8" speedFactor="1.01" vaporized="">
        <emissions CO_abs="2831.121670" CO2_abs="298573.442488" HC_abs="16.212681" PMx_abs="3.771592" NOx_abs="105.172577" fuel_abs="128.344804" electricity_abs="0"/>
    </tripinfo>
    <tripinfo id="L4-AV-10" depart="210.00" departLane="left-long-approaching_0" departPos="5.10" departSpeed="0.00" departDelay="0.00" arrival="300.90" arrivalLane="bottom-exit_0" arrivalPos="486.40" arrivalSpeed="17.24" duration="90.90" routeLength="1379.53" waitingTime="0.00" waitingCount="0" stopTime="0.00" timeLoss="9.90" rerouteNo="0" devices="tripinfo_L4-AV-10 emissions_L4-AV-10 ssm_L4-AV-10 toc_L4-AV-10 driverstateL4-AV-10" vType="L4-AV-Right-74" speedFactor="1.03" vaporized="">
        <emissions CO_abs="1797.241215" CO2_abs="288328.479817" HC_abs="11.401934" PMx_abs="3.387731" NOx_abs="99.161323" fuel_abs="123.940578" electricity_abs="0"/>
    </tripinfo>
    <tripinfo id="L4-CV-19" depart="208.40" departLane="right-approaching_0" departPos="5.10" departSpeed="0.00" departDelay="0.05" arrival="304.00" arrivalLane="top-exit_0" arrivalPos="486.40" arrivalSpeed="14.55" duration="95.60" routeLength="979.43" waitingTime="1.60" waitingCount="2" stopTime="0.00" timeLoss="27.09" rerouteNo="0" devices="tripinfo_L4-CV-19 emissions_L4-CV-19 ssm_L4-CV-19 toc_L4-CV-19 driverstateL4-CV-19" vType="L4-CV-6" speedFactor="0.87" vaporized="">
        <emissions CO_abs="3880.735719" CO2_abs="263768.021492" HC_abs="22.193663" PMx_abs="3.318648" NOx_abs="96.300122" fuel_abs="113.384511" electricity_abs="0"/>
    </tripinfo>
    <tripinfo id="L4-CV-17" depart="199.40" departLane="right-approaching_0" departPos="5.10" departSpeed="0.00" departDelay="0.35" arrival="309.60" arrivalLane="bottom-exit_0" arrivalPos="486.40" arrivalSpeed="13.76" duration="110.20" routeLength="992.21" waitingTime="12.00" waitingCount="2" stopTime="0.00" timeLoss="37.00" rerouteNo="0" devices="tripinfo_L4-CV-17 emissions_L4-CV-17 ssm_L4-CV-17 toc_L4-CV-17 driverstateL4-CV-17" vType="L4-CV-2" speedFactor="0.83" vaporized="">
        <emissions CO_abs="4472.656565" CO2_abs="270775.561749" HC_abs="25.441117" PMx_abs="3.467053" NOx_abs="99.527233" fuel_abs="116.397184" electricity_abs="0"/>
    </tripinfo>
    <tripinfo id="L4-CV-21" depart="217.70" departLane="left-long-approaching_0" departPos="5.10" departSpeed="0.00" departDelay="0.05" arrival="312.40" arrivalLane="top-exit_0" arrivalPos="486.40" arrivalSpeed="15.82" duration="94.70" routeLength="1397.47" waitingTime="0.00" waitingCount="0" stopTime="0.00" timeLoss="5.41" rerouteNo="0" devices="tripinfo_L4-CV-21 emissions_L4-CV-21 ssm_L4-CV-21 toc_L4-CV-21 driverstateL4-CV-21" vType="L4-CV-Left-56@L4-CV-21" speedFactor="0.95" vaporized="">
        <emissions CO_abs="1362.929898" CO2_abs="281871.174874" HC_abs="8.962595" PMx_abs="2.773942" NOx_abs="93.698047" fuel_abs="121.165258" electricity_abs="0"/>
    </tripinfo>
    <tripinfo id="L4-CV-3" depart="134.00" departLane="right-approaching_0" departPos="5.10" departSpeed="0.00" departDelay="0.05" arrival="313.40" arrivalLane="left-exit_0" arrivalPos="820.00" arrivalSpeed="18.72" duration="179.40" routeLength="1395.12" waitingTime="75.40" waitingCount="2" stopTime="0.00" timeLoss="104.83" rerouteNo="0" devices="tripinfo_L4-CV-3 emissions_L4-CV-3 ssm_L4-CV-3 toc_L4-CV-3 driverstateL4-CV-3" vType="L4-CV-15@L4-CV-3" speedFactor="1.12" vaporized="">
        <emissions CO_abs="16230.511444" CO2_abs="543744.923002" HC_abs="83.725634" PMx_abs="9.965561" NOx_abs="216.285036" fuel_abs="233.739185" electricity_abs="0"/>
    </tripinfo>
    <tripinfo id="L4-AV-11" depart="220.50" departLane="left-long-approaching_0" departPos="5.10" departSpeed="0.00" departDelay="1.50" arrival="314.60" arrivalLane="top-exit_0" arrivalPos="486.40" arrivalSpeed="16.95" duration="94.10" routeLength="1392.31" waitingTime="0.00" waitingCount="0" stopTime="0.00" timeLoss="10.96" rerouteNo="0" devices="tripinfo_L4-AV-11 emissions_L4-AV-11 ssm_L4-AV-11 toc_L4-AV-11 driverstateL4-AV-11" vType="L4-AV-Left-0" speedFactor="1.02" vaporized="">
        <emissions CO_abs="2200.182980" CO2_abs="249503.949725" HC_abs="13.478871" PMx_abs="3.248996" NOx_abs="89.137429" fuel_abs="107.251562" electricity_abs="0"/>
    </tripinfo>
    <tripinfo id="L0-HDV-7" depart="249.20" departLane="right-approaching_0" departPos="5.10" departSpeed="0.00" departDelay="3.20" arrival="315.70" arrivalLane="bottom-exit_1" arrivalPos="486.40" arrivalSpeed="19.63" duration="66.50" routeLength="992.21" waitingTime="0.00" waitingCount="0" stopTime="0.00" timeLoss="15.09" rerouteNo="0" devices="tripinfo_L0-HDV-7 emissions_L0-HDV-7 ssm_L0-HDV-7" vType="L0-HDV-71" speedFactor="1.18" vaporized="">
        <emissions CO_abs="2235.357027" CO2_abs="189274.189100" HC_abs="14.427253" PMx_abs="3.195828" NOx_abs="74.043797" fuel_abs="81.360731" electricity_abs="0"/>
    </tripinfo>
    <tripinfo id="L2-AV-7" depart="246.00" departLane="right-approaching_0" departPos="5.10" departSpeed="0.00" departDelay="0.00" arrival="317.00" arrivalLane="bottom-exit_0" arrivalPos="486.40" arrivalSpeed="15.61" duration="71.00" routeLength="992.21" waitingTime="0.00" waitingCount="0" stopTime="0.00" timeLoss="6.39" rerouteNo="0" devices="tripinfo_L2-AV-7 emissions_L2-AV-7 ssm_L2-AV-7 toc_L2-AV-7 driverstateL2-AV-7" vType="L2-AV-52" speedFactor="0.94" vaporized="">
        <emissions CO_abs="1642.376626" CO2_abs="218858.305411" HC_abs="9.848482" PMx_abs="2.442707" NOx_abs="75.710315" fuel_abs="94.078505" electricity_abs="0"/>
    </tripinfo>
    <tripinfo id="L4-CV-25" depart="236.30" departLane="left-long-approaching_0" departPos="5.10" departSpeed="0.00" departDelay="0.05" arrival="327.30" arrivalLane="top-exit_0" arrivalPos="486.40" arrivalSpeed="16.58" duration="91.00" routeLength="1397.47" waitingTime="0.00" waitingCount="0" stopTime="0.00" timeLoss="5.86" rerouteNo="0" devices="tripinfo_L4-CV-25 emissions_L4-CV-25 ssm_L4-CV-25 toc_L4-CV-25 driverstateL4-CV-25" vType="L4-CV-Left-41@L4-CV-25" speedFactor="0.99" vaporized="">
        <emissions CO_abs="1533.229746" CO2_abs="290314.370168" HC_abs="9.951248" PMx_abs="3.158725" NOx_abs="97.926494" fuel_abs="124.794363" electricity_abs="0"/>
    </tripinfo>
    <tripinfo id="L2-CV-2" depart="138.00" departLane="right-approaching_0" departPos="5.10" departSpeed="0.00" departDelay="0.00" arrival="328.80" arrivalLane="left-exit_0" arrivalPos="820.00" arrivalSpeed="16.14" duration="190.80" routeLength="1395.12" waitingTime="73.60" waitingCount="27" stopTime="0.00" timeLoss="104.45" rerouteNo="0" devices="tripinfo_L2-CV-2 emissions_L2-CV-2 ssm_L2-CV-2 toc_L2-CV-2 driverstateL2-CV-2" vType="L2-CV-38@L2-CV-2" speedFactor="0.97" vaporized="">
        <emissions CO_abs="13535.670875" CO2_abs="492489.137032" HC_abs="69.093358" PMx_abs="8.196315" NOx_abs="191.683171" fuel_abs="211.705809" electricity_abs="0"/>
    </tripinfo>
    <tripinfo id="L4-AV-4" depart="156.50" departLane="right-approaching_0" departPos="5.10" departSpeed="0.00" departDelay="0.50" arrival="336.20" arrivalLane="left-exit_0" arrivalPos="820.00" arrivalSpeed="17.51" duration="179.70" routeLength="1395.12" waitingTime="13.00" waitingCount="5" stopTime="0.00" timeLoss="100.35" rerouteNo="0" devices="tripinfo_L4-AV-4 emissions_L4-AV-4 ssm_L4-AV-4 toc_L4-AV-4 driverstateL4-AV-4" vType="L0-HDV-25@L4-AV-4" speedFactor="1.06" vaporized="">
        <emissions CO_abs="7260.029700" CO2_abs="355065.404713" HC_abs="40.977017" PMx_abs="6.425735" NOx_abs="143.075662" fuel_abs="152.628972" electricity_abs="0"/>
    </tripinfo>
    <tripinfo id="L2-CV-10" depart="210.00" departLane="top-approaching_0" departPos="5.10" departSpeed="0.00" departDelay="0.00" arrival="339.90" arrivalLane="bottom-exit_0" arrivalPos="486.40" arrivalSpeed="18.28" duration="129.90" routeLength="994.90" waitingTime="63.60" waitingCount="1" stopTime="0.00" timeLoss="75.37" rerouteNo="0" devices="tripinfo_L2-CV-10 emissions_L2-CV-10 ssm_L2-CV-10 toc_L2-CV-10 driverstateL2-CV-10" vType="L2-CV-24" speedFactor="1.10" vaporized="">
        <emissions CO_abs="13038.723665" CO2_abs="420387.542433" HC_abs="66.715181" PMx_abs="7.946565" NOx_abs="169.373886" fuel_abs="180.711586" electricity_abs="0"/>
    </tripinfo>
    <tripinfo id="L4-AV-12" depart="228.00" departLane="bottom-approaching_0" departPos="5.10" departSpeed="0.00" departDelay="0.00" arrival="341.00" arrivalLane="right-exit_0" arrivalPos="486.40" arrivalSpeed="19.13" duration="113.00" routeLength="979.43" waitingTime="41.40" waitingCount="1" stopTime="0.00" timeLoss="60.93" rerouteNo="0" devices="tripinfo_L4-AV-12 emissions_L4-AV-12 ssm_L4-AV-12 toc_L4-AV-12 driverstateL4-AV-12" vType="L4-AV-79" speedFactor="1.15" vaporized="">
        <emissions CO_abs="10068.168120" CO2_abs="372020.128424" HC_abs="52.876009" PMx_abs="6.869324" NOx_abs="148.696472" fuel_abs="159.919035" electricity_abs="0"/>
    </tripinfo>