<?xml version="1.0" encoding="UTF-8"?>

<!-- generated on 04/01/21 06:22:07 by Eclipse SUMO sumo Version 1.8.0
<configuration xmlns:xsi="http://www.w3.org/2001/XMLSchema-instance" xsi:noNamespaceSchemaLocation="http://sumo.dlr.de/xsd/sumoConfiguration.xsd">

    <input>
        <net-file value="Collision\RealTMSPenetration3\../CollisionIntersection.net.xml"/>
        <route-files value="Collision\RealTMSPenetration3\../CrashedVehicleRoutes.rou.xml,Collision\RealTMSPenetration3\Route-Files/L4-CV-Route.rou.xml,Collision\RealTMSPenetration3\Route-Files/L4-AV-Route.rou.xml,Collision\RealTMSPenetration3\Route-Files/L2-CV-Route.rou.xml,Collision\RealTMSPenetration3\Route-Files/L2-AV-Route.rou.xml,Collision\RealTMSPenetration3\Route-Files/L0-HDV-Route.rou.xml"/>
        <additional-files value="Collision\RealTMSPenetration3\../Additional-Files/Collision-Detectors.add.xml,Collision\RealTMSPenetration3\../Additional-Files/Collision-TMS-Rerouters.add.xml,Collision\RealTMSPenetration3\PreparingVehicleModels/Vehicle-Models/L4-CV.add.xml,Collision\RealTMSPenetration3\PreparingVehicleModels/Vehicle-Models/L4-CV-Left.add.xml,Collision\RealTMSPenetration3\PreparingVehicleModels/Vehicle-Models/L4-CV-Right.add.xml,Collision\RealTMSPenetration3\PreparingVehicleModels/Vehicle-Models/L4-AV.add.xml,Collision\RealTMSPenetration3\PreparingVehicleModels/Vehicle-Models/L4-AV-Left.add.xml,Collision\RealTMSPenetration3\PreparingVehicleModels/Vehicle-Models/L4-AV-Right.add.xml,Collision\RealTMSPenetration3\PreparingVehicleModels/Vehicle-Models/L2-CV.add.xml,Collision\RealTMSPenetration3\PreparingVehicleModels/Vehicle-Models/L2-CV-Left.add.xml,Collision\RealTMSPenetration3\PreparingVehicleModels/Vehicle-Models/L2-CV-Right.add.xml,Collision\RealTMSPenetration3\PreparingVehicleModels/Vehicle-Models/L2-AV.add.xml,Collision\RealTMSPenetration3\PreparingVehicleModels/Vehicle-Models/L2-AV-Left.add.xml,Collision\RealTMSPenetration3\PreparingVehicleModels/Vehicle-Models/L2-AV-Right.add.xml,Collision\RealTMSPenetration3\PreparingVehicleModels/Vehicle-Models/L0-HDV.add.xml,Collision\RealTMSPenetration3\PreparingVehicleModels/Vehicle-Models/L0-HDV-Left.add.xml,Collision\RealTMSPenetration3\PreparingVehicleModels/Vehicle-Models/L0-HDV-Straight.add.xml,Collision\RealTMSPenetration3\../Additional-Files/Collision-Traffic-lights.add.xml,Collision\RealTMSPenetration3\../Additional-Files/Collision-Traffic-Signs.add.xml"/>
    </input>

    <output>
        <tripinfo-output value="Collision\RealTMSPenetration3\Output-Files\TripInfo.xml"/>
    </output>

    <time>
        <begin value="0"/>
        <step-length value="0.1"/>
    </time>

    <processing>
        <ignore-route-errors value="true"/>
        <waiting-time-memory value="300"/>
        <default.action-step-length value="0.1"/>
    </processing>

    <report>
        <no-warnings value="true"/>
    </report>

    <emissions>
        <device.emissions.probability value="1"/>
    </emissions>

    <traci_server>
        <remote-port value="60228"/>
    </traci_server>

    <gui_only>
        <quit-on-end value="true"/>
        <start value="true"/>
        <tracker-interval value="0.1"/>
    </gui_only>

</configuration>
-->

<tripinfos xmlns:xsi="http://www.w3.org/2001/XMLSchema-instance" xsi:noNamespaceSchemaLocation="http://sumo.dlr.de/xsd/tripinfo_file.xsd">
    <tripinfo id="L2-CV-2" depart="128.40" departLane="right-approaching_0" departPos="5.10" departSpeed="0.00" departDelay="0.00" arrival="194.50" arrivalLane="left-exit_1" arrivalPos="410.00" arrivalSpeed="20.01" duration="66.10" routeLength="995.12" waitingTime="0.00" waitingCount="0" stopTime="0.00" timeLoss="16.27" rerouteNo="0" devices="tripinfo_L2-CV-2 emissions_L2-CV-2 ssm_L2-CV-2 toc_L2-CV-2 driverstateL2-CV-2" vType="L2-CV-0@L2-CV-2" speedFactor="1.20" vaporized="">
        <emissions CO_abs="2931.574459" CO2_abs="276826.482485" HC_abs="18.765817" PMx_abs="4.336833" NOx_abs="103.118514" fuel_abs="118.996039" electricity_abs="0"/>
    </tripinfo>
    <tripinfo id="L4-CV-1" depart="128.40" departLane="left-long-approaching_0" departPos="5.10" departSpeed="0.00" departDelay="0.00" arrival="196.50" arrivalLane="bottom-exit_0" arrivalPos="486.40" arrivalSpeed="16.26" duration="68.10" routeLength="979.53" waitingTime="0.00" waitingCount="0" stopTime="0.00" timeLoss="6.77" rerouteNo="0" devices="tripinfo_L4-CV-1 emissions_L4-CV-1 ssm_L4-CV-1 toc_L4-CV-1 driverstateL4-CV-1" vType="L4-CV-Right-89" speedFactor="0.98" vaporized="">
        <emissions CO_abs="1879.496536" CO2_abs="226535.069813" HC_abs="10.916896" PMx_abs="2.781056" NOx_abs="79.795121" fuel_abs="97.378202" electricity_abs="0"/>
    </tripinfo>
    <tripinfo id="L2-CV-6" depart="145.20" departLane="left-long-approaching_0" departPos="5.10" departSpeed="0.00" departDelay="0.00" arrival="212.20" arrivalLane="top-exit_0" arrivalPos="486.40" arrivalSpeed="16.79" duration="67.00" routeLength="992.31" waitingTime="0.00" waitingCount="0" stopTime="0.00" timeLoss="6.89" rerouteNo="0" devices="tripinfo_L2-CV-6 emissions_L2-CV-6 ssm_L2-CV-6 toc_L2-CV-6 driverstateL2-CV-6" vType="L2-CV-Left-8" speedFactor="1.01" vaporized="">
        <emissions CO_abs="1790.659428" CO2_abs="225912.478966" HC_abs="10.587207" PMx_abs="2.771205" NOx_abs="79.051950" fuel_abs="97.110566" electricity_abs="0"/>
    </tripinfo>
    <tripinfo id="L2-AV-6" depart="148.40" departLane="left-long-approaching_0" departPos="5.10" departSpeed="0.00" departDelay="3.20" arrival="212.50" arrivalLane="top-exit_1" arrivalPos="486.40" arrivalSpeed="18.57" duration="64.10" routeLength="992.31" waitingTime="0.00" waitingCount="0" stopTime="0.00" timeLoss="9.75" rerouteNo="0" devices="tripinfo_L2-AV-6 emissions_L2-AV-6 ssm_L2-AV-6 toc_L2-AV-6 driverstateL2-AV-6" vType="L2-AV-Left-3" speedFactor="1.11" vaporized="">
        <emissions CO_abs="1744.145717" CO2_abs="164579.637974" HC_abs="10.994342" PMx_abs="2.598626" NOx_abs="62.475616" fuel_abs="70.745683" electricity_abs="0"/>
    </tripinfo>
    <tripinfo id="L0-HDV-1" depart="132.00" departLane="bottom-approaching_0" departPos="5.10" departSpeed="0.00" departDelay="0.00" arrival="240.50" arrivalLane="top-exit_0" arrivalPos="486.40" arrivalSpeed="17.23" duration="108.50" routeLength="994.90" waitingTime="35.10" waitingCount="1" stopTime="0.00" timeLoss="51.06" rerouteNo="0" devices="tripinfo_L0-HDV-1 emissions_L0-HDV-1 ssm_L0-HDV-1" vType="L0-HDV-32" speedFactor="1.04" vaporized="">
        <emissions CO_abs="9308.650417" CO2_abs="340642.801505" HC_abs="50.279031" PMx_abs="6.727583" NOx_abs="141.838924" fuel_abs="146.430348" electricity_abs="0"/>
    </tripinfo>
    <tripinfo id="L2-CV-3" depart="132.60" departLane="top-approaching_0" departPos="5.10" departSpeed="0.00" departDelay="0.00" arrival="242.80" arrivalLane="left-exit_0" arrivalPos="410.00" arrivalSpeed="16.42" duration="110.20" routeLength="979.53" waitingTime="32.10" waitingCount="1" stopTime="0.00" timeLoss="49.55" rerouteNo="0" devices="tripinfo_L2-CV-3 emissions_L2-CV-3 ssm_L2-CV-3 toc_L2-CV-3 driverstateL2-CV-3" vType="L2-CV-85@L2-CV-3" speedFactor="0.98" vaporized="">
        <emissions CO_abs="8343.492653" CO2_abs="336369.734028" HC_abs="43.347439" PMx_abs="5.482783" NOx_abs="130.415306" fuel_abs="144.594343" electricity_abs="0"/>
    </tripinfo>
    <tripinfo id="L4-CV-4" depart="153.60" departLane="top-approaching_0" departPos="5.10" departSpeed="0.00" departDelay="0.00" arrival="243.20" arrivalLane="bottom-exit_0" arrivalPos="486.40" arrivalSpeed="16.52" duration="89.60" routeLength="994.90" waitingTime="11.00" waitingCount="1" stopTime="0.00" timeLoss="29.27" rerouteNo="0" devices="tripinfo_L4-CV-4 emissions_L4-CV-4 ssm_L4-CV-4 toc_L4-CV-4 driverstateL4-CV-4" vType="L4-CV-12" speedFactor="0.99" vaporized="">
        <emissions CO_abs="4835.660095" CO2_abs="283681.117463" HC_abs="26.172792" PMx_abs="4.108443" NOx_abs="105.734914" fuel_abs="121.944163" electricity_abs="0"/>
    </tripinfo>
    <tripinfo id="L4-AV-4" depart="157.50" departLane="top-approaching_0" departPos="5.10" departSpeed="0.00" departDelay="3.90" arrival="244.50" arrivalLane="bottom-exit_1" arrivalPos="486.40" arrivalSpeed="18.14" duration="87.00" routeLength="994.90" waitingTime="4.00" waitingCount="2" stopTime="0.00" timeLoss="32.09" rerouteNo="0" devices="tripinfo_L4-AV-4 emissions_L4-AV-4 ssm_L4-AV-4 toc_L4-AV-4 driverstateL4-AV-4" vType="L4-AV-14" speedFactor="1.09" vaporized="">
        <emissions CO_abs="3889.223741" CO2_abs="235111.435297" HC_abs="21.957221" PMx_abs="3.621254" NOx_abs="89.607633" fuel_abs="101.065487" electricity_abs="0"/>
    </tripinfo>
    <tripinfo id="L4-CV-7" depart="178.80" departLane="bottom-approaching_0" departPos="5.10" departSpeed="0.00" departDelay="0.00" arrival="247.20" arrivalLane="top-exit_0" arrivalPos="486.40" arrivalSpeed="15.61" duration="68.40" routeLength="994.90" waitingTime="0.00" waitingCount="0" stopTime="0.00" timeLoss="4.54" rerouteNo="0" devices="tripinfo_L4-CV-7 emissions_L4-CV-7 ssm_L4-CV-7 toc_L4-CV-7 driverstateL4-CV-7" vType="L4-CV-81" speedFactor="0.94" vaporized="">
        <emissions CO_abs="1137.970672" CO2_abs="201487.684014" HC_abs="6.629561" PMx_abs="1.937718" NOx_abs="66.641924" fuel_abs="86.611695" electricity_abs="0"/>
    </tripinfo>
    <tripinfo id="L0-HDV-3" depart="157.60" departLane="top-approaching_0" departPos="5.10" departSpeed="0.00" departDelay="1.60" arrival="253.60" arrivalLane="bottom-exit_0" arrivalPos="486.40" arrivalSpeed="12.15" duration="96.00" routeLength="994.90" waitingTime="3.40" waitingCount="1" stopTime="0.00" timeLoss="14.49" rerouteNo="0" devices="tripinfo_L0-HDV-3 emissions_L0-HDV-3 ssm_L0-HDV-3" vType="L0-HDV-75" speedFactor="0.73" vaporized="">
        <emissions CO_abs="3573.943996" CO2_abs="208243.997779" HC_abs="21.085953" PMx_abs="3.270213" NOx_abs="82.161483" fuel_abs="89.516165" electricity_abs="0"/>
    </tripinfo>
    <tripinfo id="L4-AV-7" depart="181.80" departLane="bottom-approaching_0" departPos="5.10" departSpeed="0.00" departDelay="3.00" arrival="254.90" arrivalLane="top-exit_0" arrivalPos="486.40" arrivalSpeed="14.62" duration="73.10" routeLength="994.90" waitingTime="0.00" waitingCount="0" stopTime="0.00" timeLoss="4.92" rerouteNo="0" devices="tripinfo_L4-AV-7 emissions_L4-AV-7 ssm_L4-AV-7 toc_L4-AV-7 driverstateL4-AV-7" vType="L4-AV-84" speedFactor="0.88" vaporized="">
        <emissions CO_abs="1136.612533" CO2_abs="202263.242045" HC_abs="7.199594" PMx_abs="1.788006" NOx_abs="66.746025" fuel_abs="86.945339" electricity_abs="0"/>
    </tripinfo>
    <tripinfo id="L2-CV-11" depart="166.20" departLane="top-approaching_0" departPos="5.10" departSpeed="0.00" departDelay="0.00" arrival="258.20" arrivalLane="right-exit_0" arrivalPos="486.40" arrivalSpeed="19.13" duration="92.00" routeLength="992.21" waitingTime="13.60" waitingCount="2" stopTime="0.00" timeLoss="39.31" rerouteNo="0" devices="tripinfo_L2-CV-11 emissions_L2-CV-11 ssm_L2-CV-11 toc_L2-CV-11 driverstateL2-CV-11" vType="L2-CV-79" speedFactor="1.15" vaporized="">
        <emissions CO_abs="6158.731845" CO2_abs="320509.829670" HC_abs="34.076903" PMx_abs="5.319691" NOx_abs="123.835546" fuel_abs="137.775283" electricity_abs="0"/>
    </tripinfo>
    <tripinfo id="L2-AV-11" depart="170.40" departLane="top-approaching_0" departPos="5.10" departSpeed="0.00" departDelay="4.20" arrival="267.00" arrivalLane="right-exit_0" arrivalPos="486.40" arrivalSpeed="14.78" duration="96.60" routeLength="992.21" waitingTime="0.00" waitingCount="0" stopTime="0.00" timeLoss="28.42" rerouteNo="0" devices="tripinfo_L2-AV-11 emissions_L2-AV-11 ssm_L2-AV-11 toc_L2-AV-11 driverstateL2-AV-11" vType="L2-AV-54" speedFactor="0.89" vaporized="">
        <emissions CO_abs="3027.474643" CO2_abs="239985.152933" HC_abs="17.338950" PMx_abs="2.970420" NOx_abs="86.954218" fuel_abs="103.160671" electricity_abs="0"/>
    </tripinfo>
    <tripinfo id="L2-AV-19" depart="203.70" departLane="top-approaching_0" departPos="5.10" departSpeed="0.00" departDelay="3.90" arrival="277.20" arrivalLane="right-exit_0" arrivalPos="486.40" arrivalSpeed="15.17" duration="73.50" routeLength="992.21" waitingTime="0.00" waitingCount="0" stopTime="0.00" timeLoss="6.94" rerouteNo="0" devices="tripinfo_L2-AV-19 emissions_L2-AV-19 ssm_L2-AV-19 toc_L2-AV-19 driverstateL2-AV-19" vType="L2-AV-56" speedFactor="0.91" vaporized="">
        <emissions CO_abs="1700.690039" CO2_abs="220037.065003" HC_abs="10.255940" PMx_abs="2.374069" NOx_abs="75.951728" fuel_abs="94.585365" electricity_abs="0"/>
    </tripinfo>
    <tripinfo id="L2-CV-19" depart="199.80" departLane="top-approaching_0" departPos="5.10" departSpeed="0.00" departDelay="0.00" arrival="282.70" arrivalLane="right-exit_0" arrivalPos="486.40" arrivalSpeed="16.64" duration="82.90" routeLength="992.21" waitingTime="1.60" waitingCount="5" stopTime="0.00" timeLoss="22.94" rerouteNo="0" devices="tripinfo_L2-CV-19 emissions_L2-CV-19 ssm_L2-CV-19 toc_L2-CV-19 driverstateL2-CV-19" vType="L0-HDV-3" speedFactor="1.01" vaporized="">
        <emissions CO_abs="4311.029706" CO2_abs="280898.391097" HC_abs="26.094725" PMx_abs="4.972048" NOx_abs="113.275094" fuel_abs="120.746319" electricity_abs="0"/>
    </tripinfo>
    <tripinfo id="L4-AV-11" depart="216.70" departLane="right-approaching_0" departPos="5.10" departSpeed="0.00" departDelay="4.30" arrival="293.10" arrivalLane="top-exit_1" arrivalPos="486.40" arrivalSpeed="16.70" duration="76.40" routeLength="979.43" waitingTime="0.00" waitingCount="0" stopTime="0.00" timeLoss="16.82" rerouteNo="0" devices="tripinfo_L4-AV-11 emissions_L4-AV-11 ssm_L4-AV-11 toc_L4-AV-11 driverstateL4-AV-11" vType="L0-HDV-98" speedFactor="1.00" vaporized="">
        <emissions CO_abs="2966.390101" CO2_abs="240959.158018" HC_abs="18.552018" PMx_abs="3.764040" NOx_abs="92.979717" fuel_abs="103.578290" electricity_abs="0"/>
    </tripinfo>
    <tripinfo id="L2-CV-4" depart="136.80" departLane="left-long-approaching_0" departPos="5.10" departSpeed="0.00" departDelay="0.00" arrival="294.30" arrivalLane="right-exit_1" arrivalPos="486.40" arrivalSpeed="17.21" duration="157.50" routeLength="995.23" waitingTime="77.70" waitingCount="2" stopTime="0.00" timeLoss="99.62" rerouteNo="0" devices="tripinfo_L2-CV-4 emissions_L2-CV-4 ssm_L2-CV-4 toc_L2-CV-4 driverstateL2-CV-4" vType="L2-CV-94@L2-CV-4" speedFactor="1.03" vaporized="">
        <emissions CO_abs="16056.633318" CO2_abs="462916.153966" HC_abs="81.802400" PMx_abs="8.738023" NOx_abs="188.766253" fuel_abs="198.994674" electricity_abs="0"/>
    </tripinfo>
    <tripinfo id="L4-CV-11" depart="212.40" departLane="right-approaching_0" departPos="5.10" departSpeed="0.00" departDelay="0.00" arrival="294.50" arrivalLane="top-exit_0" arrivalPos="486.40" arrivalSpeed="14.83" duration="82.10" routeLength="979.43" waitingTime="0.10" waitingCount="1" stopTime="0.00" timeLoss="14.96" rerouteNo="0" devices="tripinfo_L4-CV-11 emissions_L4-CV-11 ssm_L4-CV-11 toc_L4-CV-11 driverstateL4-CV-11" vType="L4-CV-95" speedFactor="0.89" vaporized="">
        <emissions CO_abs="2768.977139" CO2_abs="245107.747962" HC_abs="16.242120" PMx_abs="2.933153" NOx_abs="87.942897" fuel_abs="105.362586" electricity_abs="0"/>
    </tripinfo>
    <tripinfo id="L2-CV-10" depart="162.00" departLane="left-long-approaching_0" departPos="5.10" departSpeed="0.00" departDelay="0.00" arrival="294.90" arrivalLane="right-exit_0" arrivalPos="486.40" arrivalSpeed="16.95" duration="132.90" routeLength="995.23" waitingTime="46.50" waitingCount="1" stopTime="0.00" timeLoss="74.32" rerouteNo="0" devices="tripinfo_L2-CV-10 emissions_L2-CV-10 ssm_L2-CV-10 toc_L2-CV-10 driverstateL2-CV-10" vType="L2-CV-0@L2-CV-10" speedFactor="1.02" vaporized="">
        <emissions CO_abs="8779.512291" CO2_abs="354619.651427" HC_abs="46.360881" PMx_abs="5.882611" NOx_abs="138.241832" fuel_abs="152.439343" electricity_abs="0"/>
    </tripinfo>
    <tripinfo id="L0-HDV-9" depart="228.00" departLane="right-approaching_0" departPos="5.10" departSpeed="0.00" departDelay="0.00" arrival="295.00" arrivalLane="top-exit_1" arrivalPos="486.40" arrivalSpeed="19.31" duration="67.00" routeLength="979.43" waitingTime="0.00" waitingCount="0" stopTime="0.00" timeLoss="17.79" rerouteNo="0" devices="tripinfo_L0-HDV-9 emissions_L0-HDV-9 ssm_L0-HDV-9" vType="L0-HDV-57" speedFactor="1.21" vaporized="">
        <emissions CO_abs="3466.726699" CO2_abs="255945.620929" HC_abs="21.854971" PMx_abs="4.786328" NOx_abs="104.160539" fuel_abs="110.019488" electricity_abs="0"/>
    </tripinfo>
    <tripinfo id="L4-AV-1" depart="131.40" departLane="left-long-approaching_0" departPos="5.10" departSpeed="0.00" departDelay="3.00" arrival="295.30" arrivalLane="bottom-exit_0" arrivalPos="486.40" arrivalSpeed="13.99" duration="163.90" routeLength="979.53" waitingTime="81.70" waitingCount="1" stopTime="0.00" timeLoss="92.69" rerouteNo="0" devices="tripinfo_L4-AV-1 emissions_L4-AV-1 ssm_L4-AV-1 toc_L4-AV-1 driverstateL4-AV-1" vType="L4-AV-Right-74" speedFactor="0.84" vaporized="">
        <emissions CO_abs="15805.181976" CO2_abs="448126.466668" HC_abs="80.750189" PMx_abs="8.136136" NOx_abs="182.094780" fuel_abs="192.637661" electricity_abs="0"/>
    </tripinfo>
    <tripinfo id="L2-CV-12" depart="170.40" departLane="left-long-approaching_0" departPos="5.10" departSpeed="0.00" departDelay="0.00" arrival="296.90" arrivalLane="bottom-exit_0" arrivalPos="486.40" arrivalSpeed="16.27" duration="126.50" routeLength="979.53" waitingTime="43.50" waitingCount="26" stopTime="0.00" timeLoss="65.53" rerouteNo="0" devices="tripinfo_L2-CV-12 emissions_L2-CV-12 ssm_L2-CV-12 toc_L2-CV-12 driverstateL2-CV-12" vType="L2-CV-Right-98" speedFactor="0.98" vaporized="">
        <emissions CO_abs="8212.302143" CO2_abs="318874.322837" HC_abs="43.269829" PMx_abs="5.494462" NOx_abs="126.174177" fuel_abs="137.073527" electricity_abs="0"/>
    </tripinfo>
    <tripinfo id="L2-AV-4" depart="140.90" departLane="left-long-approaching_0" departPos="5.10" departSpeed="0.00" departDelay="4.10" arrival="297.50" arrivalLane="right-exit_0" arrivalPos="486.40" arrivalSpeed="15.89" duration="156.60" routeLength="995.23" waitingTime="23.40" waitingCount="1" stopTime="0.00" timeLoss="93.90" rerouteNo="0" devices="tripinfo_L2-AV-4 emissions_L2-AV-4 ssm_L2-AV-4 toc_L2-AV-4 driverstateL2-AV-4" vType="L2-AV-1" speedFactor="0.95" vaporized="">
        <emissions CO_abs="3189.558504" CO2_abs="244954.121132" HC_abs="17.927610" PMx_abs="3.230829" NOx_abs="89.362912" fuel_abs="105.296446" electricity_abs="0"/>
    </tripinfo>
    <tripinfo id="L2-AV-12" depart="173.20" departLane="left-long-approaching_0" departPos="5.10" departSpeed="0.00" departDelay="2.80" arrival="298.80" arrivalLane="bottom-exit_0" arrivalPos="486.40" arrivalSpeed="16.12" duration="125.60" routeLength="979.53" waitingTime="0.00" waitingCount="0" stopTime="0.00" timeLoss="63.81" rerouteNo="0" devices="tripinfo_L2-AV-12 emissions_L2-AV-12 ssm_L2-AV-12 toc_L2-AV-12 driverstateL2-AV-12" vType="L2-AV-Right-99" speedFactor="0.97" vaporized="">
        <emissions CO_abs="3311.711490" CO2_abs="233952.907437" HC_abs="18.871241" PMx_abs="3.474907" NOx_abs="88.466336" fuel_abs="100.567105" electricity_abs="0"/>
    </tripinfo>
    <tripinfo id="L2-AV-15" depart="187.10" departLane="left-long-approaching_0" departPos="5.10" departSpeed="0.00" departDelay="4.10" arrival="299.40" arrivalLane="top-exit_0" arrivalPos="486.40" arrivalSpeed="16.75" duration="112.30" routeLength="992.31" waitingTime="28.30" waitingCount="2" stopTime="0.00" timeLoss="52.04" rerouteNo="0" devices="tripinfo_L2-AV-15 emissions_L2-AV-15 ssm_L2-AV-15 toc_L2-AV-15 driverstateL2-AV-15" vType="L2-AV-Left-29" speedFactor="1.00" vaporized="">
        <emissions CO_abs="8207.500386" CO2_abs="324598.241337" HC_abs="43.147470" PMx_abs="5.517874" NOx_abs="127.959986" fuel_abs="139.533991" electricity_abs="0"/>
    </tripinfo>
    <tripinfo id="L2-CV-13" depart="176.40" departLane="left-long-approaching_0" departPos="5.10" departSpeed="0.00" departDelay="1.80" arrival="299.80" arrivalLane="right-exit_1" arrivalPos="486.40" arrivalSpeed="17.38" duration="123.40" routeLength="995.23" waitingTime="0.00" waitingCount="0" stopTime="0.00" timeLoss="66.03" rerouteNo="0" devices="tripinfo_L2-CV-13 emissions_L2-CV-13 ssm_L2-CV-13 toc_L2-CV-13 driverstateL2-CV-13" vType="L2-CV-1@L2-CV-13" speedFactor="1.04" vaporized="">
        <emissions CO_abs="4141.537063" CO2_abs="279413.820794" HC_abs="23.778465" PMx_abs="4.149701" NOx_abs="104.970897" fuel_abs="120.109258" electricity_abs="0"/>
    </tripinfo>
    <tripinfo id="L2-AV-27" depart="236.70" departLane="right-approaching_0" departPos="5.10" departSpeed="0.00" departDelay="3.30" arrival="303.10" arrivalLane="top-exit_1" arrivalPos="486.40" arrivalSpeed="19.04" duration="66.40" routeLength="979.43" waitingTime="0.00" waitingCount="0" stopTime="0.00" timeLoss="14.07" rerouteNo="0" devices="tripinfo_L2-AV-27 emissions_L2-AV-27 ssm_L2-AV-27 toc_L2-AV-27 driverstateL2-AV-27" vType="L2-AV-57" speedFactor="1.14" vaporized="">
        <emissions CO_abs="2339.356834" CO2_abs="190378.871347" HC_abs="14.293707" PMx_abs="3.150171" NOx_abs="73.512303" fuel_abs="81.835701" electricity_abs="0"/>
    </tripinfo>
    <tripinfo id="L2-CV-27" depart="233.40" departLane="right-approaching_0" departPos="5.10" departSpeed="0.00" departDelay="0.00" arrival="306.20" arrivalLane="top-exit_0" arrivalPos="486.40" arrivalSpeed="15.47" duration="72.80" routeLength="979.43" waitingTime="0.00" waitingCount="0" stopTime="0.00" timeLoss="8.39" rerouteNo="0" devices="tripinfo_L2-CV-27 emissions_L2-CV-27 ssm_L2-CV-27 toc_L2-CV-27 driverstateL2-CV-27" vType="L2-CV-57" speedFactor="0.93" vaporized="">
        <emissions CO_abs="1812.544848" CO2_abs="226328.721293" HC_abs="11.383117" PMx_abs="2.599377" NOx_abs="79.311124" fuel_abs="97.289797" electricity_abs="0"/>
    </tripinfo>
    <tripinfo id="L4-CV-10" depart="204.00" departLane="left-long-approaching_0" departPos="5.10" departSpeed="0.00" departDelay="0.00" arrival="306.30" arrivalLane="right-exit_1" arrivalPos="486.40" arrivalSpeed="16.25" duration="102.30" routeLength="995.23" waitingTime="3.10" waitingCount="31" stopTime="0.00" timeLoss="41.02" rerouteNo="0" devices="tripinfo_L4-CV-10 emissions_L4-CV-10 ssm_L4-CV-10 toc_L4-CV-10 driverstateL4-CV-10" vType="L4-CV-30@L4-CV-10" speedFactor="0.98" vaporized="">
        <emissions CO_abs="5307.722179" CO2_abs="279641.411324" HC_abs="29.547238" PMx_abs="4.524605" NOx_abs="109.133709" fuel_abs="120.207427" electricity_abs="0"/>
    </tripinfo>
    <tripinfo id="L2-AV-10" depart="165.90" departLane="left-long-approaching_0" departPos="5.10" departSpeed="0.00" departDelay="3.90" arrival="307.20" arrivalLane="right-exit_0" arrivalPos="486.40" arrivalSpeed="12.23" duration="141.30" routeLength="995.23" waitingTime="0.00" waitingCount="0" stopTime="0.00" timeLoss="59.85" rerouteNo="0" devices="tripinfo_L2-AV-10 emissions_L2-AV-10 ssm_L2-AV-10 toc_L2-AV-10 driverstateL2-AV-10" vType="L2-AV-42" speedFactor="0.73" vaporized="">
        <emissions CO_abs="2605.193256" CO2_abs="224181.250380" HC_abs="16.876519" PMx_abs="2.360447" NOx_abs="79.675579" fuel_abs="96.367826" electricity_abs="0"/>
    </tripinfo>
    <tripinfo id="L0-HDV-10" depart="240.00" departLane="right-approaching_0" departPos="5.10" departSpeed="0.00" departDelay="0.00" arrival="307.30" arrivalLane="top-exit_1" arrivalPos="486.40" arrivalSpeed="17.69" duration="67.30" routeLength="979.43" waitingTime="0.00" waitingCount="0" stopTime="0.00" timeLoss="11.16" rerouteNo="0" devices="tripinfo_L0-HDV-10 emissions_L0-HDV-10 ssm_L0-HDV-10" vType="L0-HDV-73" speedFactor="1.06" vaporized="">
        <emissions CO_abs="2307.014440" CO2_abs="182620.250650" HC_abs="14.637273" PMx_abs="3.185064" NOx_abs="72.600330" fuel_abs="78.500418" electricity_abs="0"/>
    </tripinfo>
    <tripinfo id="L2-CV-17" depart="191.40" departLane="right-approaching_0" departPos="5.10" departSpeed="0.00" departDelay="0.00" arrival="311.40" arrivalLane="bottom-exit_0" arrivalPos="486.40" arrivalSpeed="15.36" duration="120.00" routeLength="992.21" waitingTime="41.60" waitingCount="2" stopTime="0.00" timeLoss="54.38" rerouteNo="0" devices="tripinfo_L2-CV-17 emissions_L2-CV-17 ssm_L2-CV-17 toc_L2-CV-17 driverstateL2-CV-17" vType="L2-CV-44" speedFactor="0.92" vaporized="">
        <emissions CO_abs="9217.955061" CO2_abs="348693.158882" HC_abs="47.627761" PMx_abs="5.698693" NOx_abs="135.650480" fuel_abs="149.892234" electricity_abs="0"/>
    </tripinfo>
    <tripinfo id="L2-AV-16" depart="190.30" departLane="left-long-approaching_0" departPos="5.10" departSpeed="0.00" departDelay="3.10" arrival="312.30" arrivalLane="top-exit_0" arrivalPos="486.40" arrivalSpeed="15.45" duration="122.00" routeLength="992.31" waitingTime="23.40" waitingCount="2" stopTime="0.00" timeLoss="56.72" rerouteNo="0" devices="tripinfo_L2-AV-16 emissions_L2-AV-16 ssm_L2-AV-16 toc_L2-AV-16 driverstateL2-AV-16" vType="L2-AV-Left-28" speedFactor="0.93" vaporized="">
        <emissions CO_abs="4810.115811" CO2_abs="274702.595003" HC_abs="26.072133" PMx_abs="4.013581" NOx_abs="103.368394" fuel_abs="118.084637" electricity_abs="0"/>
    </tripinfo>
    <tripinfo id="L2-CV-15" depart="183.00" departLane="left-long-approaching_0" departPos="5.10" departSpeed="0.00" departDelay="0.00" arrival="315.30" arrivalLane="top-exit_0" arrivalPos="486.40" arrivalSpeed="17.04" duration="132.30" routeLength="997.47" waitingTime="7.10" waitingCount="2" stopTime="0.00" timeLoss="72.82" rerouteNo="0" devices="tripinfo_L2-CV-15 emissions_L2-CV-15 ssm_L2-CV-15 toc_L2-CV-15 driverstateL2-CV-15" vType="L2-CV-Left-94@L2-CV-15" speedFactor="1.02" vaporized="">
        <emissions CO_abs="5881.071746" CO2_abs="305282.336256" HC_abs="32.213321" PMx_abs="4.767461" NOx_abs="117.303146" fuel_abs="131.229837" electricity_abs="0"/>
    </tripinfo>
    <tripinfo id="L2-AV-3" depart="136.40" departLane="top-approaching_0" departPos="5.10" departSpeed="0.00" departDelay="3.80" arrival="315.40" arrivalLane="left-exit_1" arrivalPos="410.00" arrivalSpeed="16.74" duration="179.00" routeLength="979.53" waitingTime="97.00" waitingCount="2" stopTime="0.00" timeLoss="120.15" rerouteNo="0" devices="tripinfo_L2-AV-3 emissions_L2-AV-3 ssm_L2-AV-3 toc_L2-AV-3 driverstateL2-AV-3" vType="L0-HDV-57@L2-AV-3" speedFactor="1.02" vaporized="">
        <emissions CO_abs="20129.725892" CO2_abs="529751.577443" HC_abs="103.257567" PMx_abs="11.150264" NOx_abs="226.085699" fuel_abs="227.725110" electricity_abs="0"/>
    </tripinfo>
    <tripinfo id="L2-AV-22" depart="215.90" departLane="left-long-approaching_0" departPos="5.10" departSpeed="0.00" departDelay="3.50" arrival="315.60" arrivalLane="top-exit_1" arrivalPos="486.40" arrivalSpeed="17.53" duration="99.70" routeLength="992.31" waitingTime="0.00" waitingCount="0" stopTime="0.00" timeLoss="42.17" rerouteNo="0" devices="tripinfo_L2-AV-22 emissions_L2-AV-22 ssm_L2-AV-22 toc_L2-AV-22 driverstateL2-AV-22" vType="L2-AV-Left-59" speedFactor="1.05" vaporized="">
        <emissions CO_abs="3918.080516" CO2_abs="246801.653483" HC_abs="22.229555" PMx_abs="3.783980" NOx_abs="94.234867" fuel_abs="106.090512" electricity_abs="0"/>
    </tripinfo>
    <tripinfo id="L2-AV-13" depart="180.30" departLane="left-long-approaching_0" departPos="5.10" departSpeed="0.00" departDelay="5.70" arrival="317.40" arrivalLane="right-exit_0" arrivalPos="486.40" arrivalSpeed="17.33" duration="137.10" routeLength="995.23" waitingTime="2.20" waitingCount="2" stopTime="0.00" timeLoss="79.55" rerouteNo="0" devices="tripinfo_L2-AV-13 emissions_L2-AV-13 ssm_L2-AV-13 toc_L2-AV-13 driverstateL2-AV-13" vType="L2-AV-92" speedFactor="1.04" vaporized="">
        <emissions CO_abs="4915.959959" CO2_abs="273626.711745" HC_abs="27.646656" PMx_abs="4.180200" NOx_abs="104.938794" fuel_abs="117.622104" electricity_abs="0"/>
    </tripinfo>
    <tripinfo id="L2-AV-17" depart="194.20" departLane="right-approaching_0" departPos="5.10" departSpeed="0.00" departDelay="2.80" arrival="318.10" arrivalLane="bottom-exit_0" arrivalPos="486.40" arrivalSpeed="17.75" duration="123.90" routeLength="992.21" waitingTime="9.60" waitingCount="2" stopTime="0.00" timeLoss="67.07" rerouteNo="0" devices="tripinfo_L2-AV-17 emissions_L2-AV-17 ssm_L2-AV-17 toc_L2-AV-17 driverstateL2-AV-17" vType="L2-AV-86" speedFactor="1.06" vaporized="">
        <emissions CO_abs="4348.514868" CO2_abs="242409.518319" HC_abs="24.097968" PMx_abs="4.002137" NOx_abs="94.307211" fuel_abs="104.202494" electricity_abs="0"/>
    </tripinfo>
    <tripinfo id="L2-CV-16" depart="187.20" departLane="left-long-approaching_0" departPos="5.10" departSpeed="0.00" departDelay="0.00" arrival="319.80" arrivalLane="top-exit_0" arrivalPos="486.40" arrivalSpeed="14.87" duration="132.60" routeLength="997.47" waitingTime="1.50" waitingCount="1" stopTime="0.00" timeLoss="64.50" rerouteNo="0" devices="tripinfo_L2-CV-16 emissions_L2-CV-16 ssm_L2-CV-16 toc_L2-CV-16 driverstateL2-CV-16" vType="L2-CV-Left-23@L2-CV-16" speedFactor="0.89" vaporized="">
        <emissions CO_abs="4145.558670" CO2_abs="256350.523761" HC_abs="23.014866" PMx_abs="3.462184" NOx_abs="95.372155" fuel_abs="110.195869" electricity_abs="0"/>
    </tripinfo>
    <tripinfo id="L0-HDV-7" depart="204.00" departLane="right-approaching_0" departPos="5.10" departSpeed="0.00" departDelay="0.00" arrival="320.80" arrivalLane="bottom-exit_0" arrivalPos="486.40" arrivalSpeed="16.62" duration="116.80" routeLength="992.21" waitingTime="8.90" waitingCount="2" stopTime="0.00" timeLoss="56.08" rerouteNo="0" devices="tripinfo_L0-HDV-7 emissions_L0-HDV-7 ssm_L0-HDV-7" vType="L0-HDV-33" speedFactor="1.00" vaporized="">
        <emissions CO_abs="5703.579722" CO2_abs="257960.001621" HC_abs="31.847930" PMx_abs="4.774032" NOx_abs="105.101515" fuel_abs="110.887271" electricity_abs="0"/>
    </tripinfo>