<?xml version="1.0" encoding="UTF-8"?>

<!-- generated on 04/10/21 15:26:06 by Eclipse SUMO GUI Version 1.8.0
<configuration xmlns:xsi="http://www.w3.org/2001/XMLSchema-instance" xsi:noNamespaceSchemaLocation="http://sumo.dlr.de/xsd/sumoConfiguration.xsd">

    <input>
        <net-file value="Collision\RealTMSPenetration3\../CollisionIntersection.net.xml"/>
        <route-files value="Collision\RealTMSPenetration3\../CrashedVehicleRoutes.rou.xml,Collision\RealTMSPenetration3\../PresentationRoute.xml"/>
        <additional-files value="Collision\RealTMSPenetration3\../Additional-Files/Collision-Detectors.add.xml,Collision\RealTMSPenetration3\../Additional-Files/Collision-TMS-Rerouters.add.xml,Collision\RealTMSPenetration3\PreparingVehicleModels/Vehicle-Models/L4-CV.add.xml,Collision\RealTMSPenetration3\PreparingVehicleModels/Vehicle-Models/L4-CV-Left.add.xml,Collision\RealTMSPenetration3\PreparingVehicleModels/Vehicle-Models/L4-CV-Right.add.xml,Collision\RealTMSPenetration3\PreparingVehicleModels/Vehicle-Models/L4-AV.add.xml,Collision\RealTMSPenetration3\PreparingVehicleModels/Vehicle-Models/L4-AV-Left.add.xml,Collision\RealTMSPenetration3\PreparingVehicleModels/Vehicle-Models/L4-AV-Right.add.xml,Collision\RealTMSPenetration3\PreparingVehicleModels/Vehicle-Models/L2-CV.add.xml,Collision\RealTMSPenetration3\PreparingVehicleModels/Vehicle-Models/L2-CV-Left.add.xml,Collision\RealTMSPenetration3\PreparingVehicleModels/Vehicle-Models/L2-CV-Right.add.xml,Collision\RealTMSPenetration3\PreparingVehicleModels/Vehicle-Models/L2-AV.add.xml,Collision\RealTMSPenetration3\PreparingVehicleModels/Vehicle-Models/L2-AV-Left.add.xml,Collision\RealTMSPenetration3\PreparingVehicleModels/Vehicle-Models/L2-AV-Right.add.xml,Collision\RealTMSPenetration3\PreparingVehicleModels/Vehicle-Models/L0-HDV.add.xml,Collision\RealTMSPenetration3\PreparingVehicleModels/Vehicle-Models/L0-HDV-Left.add.xml,Collision\RealTMSPenetration3\PreparingVehicleModels/Vehicle-Models/L0-HDV-Straight.add.xml,Collision\RealTMSPenetration3\../Additional-Files/Collision-Traffic-lights.add.xml,Collision\RealTMSPenetration3\../Additional-Files/Collision-Traffic-Signs.add.xml"/>
    </input>

    <output>
        <tripinfo-output value="Collision\RealTMSPenetration3\Output-Files\TripInfo.xml"/>
    </output>

    <time>
        <begin value="0"/>
        <step-length value="0.1"/>
    </time>

    <processing>
        <ignore-route-errors value="true"/>
        <waiting-time-memory value="300"/>
        <default.action-step-length value="0.1"/>
    </processing>

    <emissions>
        <device.emissions.probability value="1"/>
    </emissions>

    <traci_server>
        <remote-port value="53145"/>
    </traci_server>

    <gui_only>
        <tracker-interval value="0.1"/>
    </gui_only>

</configuration>
-->

<tripinfos xmlns:xsi="http://www.w3.org/2001/XMLSchema-instance" xsi:noNamespaceSchemaLocation="http://sumo.dlr.de/xsd/tripinfo_file.xsd">
    <tripinfo id="L4-CV-1.0" depart="170.00" departLane="bottom-approaching_1" departPos="5.10" departSpeed="0.00" departDelay="0.00" arrival="254.50" arrivalLane="left-exit_0" arrivalPos="410.00" arrivalSpeed="12.93" duration="84.50" routeLength="992.31" waitingTime="0.00" waitingCount="0" stopTime="0.00" timeLoss="6.55" rerouteNo="0" devices="tripinfo_L4-CV-1.0 emissions_L4-CV-1.0 ssm_L4-CV-1.0 toc_L4-CV-1.0 driverstateL4-CV-1.0" vType="L4-CV-93@L4-CV-1.0" speedFactor="0.78" vaporized="">
        <emissions CO_abs="1680.900893" CO2_abs="224623.600655" HC_abs="12.257124" PMx_abs="2.159102" NOx_abs="77.594381" fuel_abs="96.557511" electricity_abs="0"/>
    </tripinfo>
    <tripinfo id="L0-HDV-1.0" depart="175.00" departLane="bottom-approaching_1" departPos="5.10" departSpeed="0.00" departDelay="0.00" arrival="263.00" arrivalLane="left-exit_1" arrivalPos="410.00" arrivalSpeed="17.59" duration="88.00" routeLength="992.31" waitingTime="1.90" waitingCount="2" stopTime="0.00" timeLoss="30.65" rerouteNo="0" devices="tripinfo_L0-HDV-1.0 emissions_L0-HDV-1.0 ssm_L0-HDV-1.0" vType="L0-HDV-95@L0-HDV-1.0" speedFactor="1.06" vaporized="">
        <emissions CO_abs="4197.605373" CO2_abs="223201.544803" HC_abs="24.090970" PMx_abs="3.867385" NOx_abs="89.331965" fuel_abs="95.945669" electricity_abs="0"/>
    </tripinfo>
    <tripinfo id="L4-CV-0.0" depart="170.00" departLane="left-long-approaching_2" departPos="5.10" departSpeed="0.00" departDelay="0.00" arrival="272.60" arrivalLane="top-exit_0" arrivalPos="486.40" arrivalSpeed="16.89" duration="102.60" routeLength="997.47" waitingTime="29.70" waitingCount="1" stopTime="0.00" timeLoss="42.66" rerouteNo="0" devices="tripinfo_L4-CV-0.0 emissions_L4-CV-0.0 ssm_L4-CV-0.0 toc_L4-CV-0.0 driverstateL4-CV-0.0" vType="L4-CV-Left-4@L4-CV-0.0" speedFactor="1.01" vaporized="">
        <emissions CO_abs="7540.007491" CO2_abs="327194.278186" HC_abs="39.213369" PMx_abs="5.340610" NOx_abs="125.975124" fuel_abs="140.649634" electricity_abs="0"/>
    </tripinfo>
    <tripinfo id="L4-CV-4.0" depart="180.00" departLane="left-long-approaching_1" departPos="5.10" departSpeed="0.00" departDelay="0.00" arrival="275.20" arrivalLane="right-exit_0" arrivalPos="486.40" arrivalSpeed="16.52" duration="95.20" routeLength="995.23" waitingTime="12.40" waitingCount="1" stopTime="0.00" timeLoss="34.87" rerouteNo="0" devices="tripinfo_L4-CV-4.0 emissions_L4-CV-4.0 ssm_L4-CV-4.0 toc_L4-CV-4.0 driverstateL4-CV-4.0" vType="L4-CV-12@L4-CV-4.0" speedFactor="0.99" vaporized="">
        <emissions CO_abs="5511.925476" CO2_abs="300652.780475" HC_abs="29.895735" PMx_abs="4.478729" NOx_abs="113.418129" fuel_abs="129.239822" electricity_abs="0"/>
    </tripinfo>
    <tripinfo id="L0-HDV-2.0" depart="180.10" departLane="left-long-approaching_2" departPos="5.10" departSpeed="0.00" departDelay="0.10" arrival="277.50" arrivalLane="right-exit_0" arrivalPos="486.40" arrivalSpeed="16.31" duration="97.40" routeLength="995.23" waitingTime="17.80" waitingCount="1" stopTime="0.00" timeLoss="36.50" rerouteNo="0" devices="tripinfo_L0-HDV-2.0 emissions_L0-HDV-2.0 ssm_L0-HDV-2.0" vType="L0-HDV-Straight-22" speedFactor="0.98" vaporized="">
        <emissions CO_abs="4666.678035" CO2_abs="272975.575176" HC_abs="27.654748" PMx_abs="5.172241" NOx_abs="112.476440" fuel_abs="117.340518" electricity_abs="0"/>
    </tripinfo>
    <tripinfo id="L4-CV-2.0" depart="175.00" departLane="left-long-approaching_1" departPos="5.10" departSpeed="0.00" departDelay="0.00" arrival="278.50" arrivalLane="top-exit_0" arrivalPos="486.40" arrivalSpeed="15.38" duration="103.50" routeLength="997.47" waitingTime="18.70" waitingCount="24" stopTime="0.00" timeLoss="37.71" rerouteNo="0" devices="tripinfo_L4-CV-2.0 emissions_L4-CV-2.0 ssm_L4-CV-2.0 toc_L4-CV-2.0 driverstateL4-CV-2.0" vType="L4-CV-Left-3@L4-CV-2.0" speedFactor="0.92" vaporized="">
        <emissions CO_abs="4733.482502" CO2_abs="278909.482366" HC_abs="25.668791" PMx_abs="3.904199" NOx_abs="103.518250" fuel_abs="119.893173" electricity_abs="0"/>
    </tripinfo>
</tripinfos>
