<?xml version="1.0" encoding="UTF-8"?>

<!-- generated on 04/09/21 15:30:12 by Eclipse SUMO sumo Version 1.8.0
<configuration xmlns:xsi="http://www.w3.org/2001/XMLSchema-instance" xsi:noNamespaceSchemaLocation="http://sumo.dlr.de/xsd/sumoConfiguration.xsd">

    <input>
        <net-file value="Collision\RealTMSPenetration3\../CollisionIntersection.net.xml"/>
        <route-files value="Collision\RealTMSPenetration3\../CrashedVehicleRoutes.rou.xml,Collision\RealTMSPenetration3\Route-Files/L4-CV-Route.rou.xml,Collision\RealTMSPenetration3\Route-Files/L4-AV-Route.rou.xml,Collision\RealTMSPenetration3\Route-Files/L2-CV-Route.rou.xml,Collision\RealTMSPenetration3\Route-Files/L2-AV-Route.rou.xml,Collision\RealTMSPenetration3\Route-Files/L0-HDV-Route.rou.xml"/>
        <additional-files value="Collision\RealTMSPenetration3\../Additional-Files/Collision-Detectors.add.xml,Collision\RealTMSPenetration3\../Additional-Files/Collision-TMS-Rerouters.add.xml,Collision\RealTMSPenetration3\PreparingVehicleModels/Vehicle-Models/L4-CV.add.xml,Collision\RealTMSPenetration3\PreparingVehicleModels/Vehicle-Models/L4-CV-Left.add.xml,Collision\RealTMSPenetration3\PreparingVehicleModels/Vehicle-Models/L4-CV-Right.add.xml,Collision\RealTMSPenetration3\PreparingVehicleModels/Vehicle-Models/L4-AV.add.xml,Collision\RealTMSPenetration3\PreparingVehicleModels/Vehicle-Models/L4-AV-Left.add.xml,Collision\RealTMSPenetration3\PreparingVehicleModels/Vehicle-Models/L4-AV-Right.add.xml,Collision\RealTMSPenetration3\PreparingVehicleModels/Vehicle-Models/L2-CV.add.xml,Collision\RealTMSPenetration3\PreparingVehicleModels/Vehicle-Models/L2-CV-Left.add.xml,Collision\RealTMSPenetration3\PreparingVehicleModels/Vehicle-Models/L2-CV-Right.add.xml,Collision\RealTMSPenetration3\PreparingVehicleModels/Vehicle-Models/L2-AV.add.xml,Collision\RealTMSPenetration3\PreparingVehicleModels/Vehicle-Models/L2-AV-Left.add.xml,Collision\RealTMSPenetration3\PreparingVehicleModels/Vehicle-Models/L2-AV-Right.add.xml,Collision\RealTMSPenetration3\PreparingVehicleModels/Vehicle-Models/L0-HDV.add.xml,Collision\RealTMSPenetration3\PreparingVehicleModels/Vehicle-Models/L0-HDV-Left.add.xml,Collision\RealTMSPenetration3\PreparingVehicleModels/Vehicle-Models/L0-HDV-Straight.add.xml,Collision\RealTMSPenetration3\../Additional-Files/Collision-Traffic-lights.add.xml,Collision\RealTMSPenetration3\../Additional-Files/Collision-Traffic-Signs.add.xml"/>
    </input>

    <output>
        <tripinfo-output value="Collision\RealTMSPenetration3\Output-Files\TripInfo.xml"/>
    </output>

    <time>
        <begin value="0"/>
        <step-length value="0.1"/>
    </time>

    <processing>
        <ignore-route-errors value="true"/>
        <waiting-time-memory value="300"/>
        <default.action-step-length value="0.1"/>
    </processing>

    <report>
        <no-warnings value="true"/>
    </report>

    <emissions>
        <device.emissions.probability value="1"/>
    </emissions>

    <traci_server>
        <remote-port value="57781"/>
    </traci_server>

    <gui_only>
        <quit-on-end value="true"/>
        <start value="true"/>
        <tracker-interval value="0.1"/>
    </gui_only>

</configuration>
-->

<tripinfos xmlns:xsi="http://www.w3.org/2001/XMLSchema-instance" xsi:noNamespaceSchemaLocation="http://sumo.dlr.de/xsd/tripinfo_file.xsd">
    <tripinfo id="L2-CV-2" depart="127.00" departLane="right-approaching_0" departPos="5.10" departSpeed="0.00" departDelay="0.00" arrival="171.40" arrivalLane="left-long-approaching_2" arrivalPos="410.00" arrivalSpeed="13.19" duration="44.40" routeLength="995.12" waitingTime="0.00" waitingCount="0" stopTime="0.00" timeLoss="15.12" rerouteNo="0" devices="tripinfo_L2-CV-2 emissions_L2-CV-2 ssm_L2-CV-2 toc_L2-CV-2 driverstateL2-CV-2" vType="L2-CV-0@L2-CV-2" speedFactor="1.20" vaporized="">
        <emissions CO_abs="2397.789060" CO2_abs="181802.922481" HC_abs="14.773556" PMx_abs="2.947866" NOx_abs="69.625217" fuel_abs="78.149594" electricity_abs="0"/>
    </tripinfo>
    <tripinfo id="L2-AV-1" depart="123.50" departLane="left-long-approaching_0" departPos="5.10" departSpeed="0.00" departDelay="0.00" arrival="184.30" arrivalLane="right-exit_1" arrivalPos="486.40" arrivalSpeed="19.65" duration="60.80" routeLength="995.23" waitingTime="0.10" waitingCount="1" stopTime="0.00" timeLoss="10.09" rerouteNo="0" devices="tripinfo_L2-AV-1 emissions_L2-AV-1 ssm_L2-AV-1 toc_L2-AV-1 driverstateL2-AV-1" vType="L2-AV-33" speedFactor="1.18" vaporized="">
        <emissions CO_abs="1832.501881" CO2_abs="224378.418973" HC_abs="11.545351" PMx_abs="3.060720" NOx_abs="78.027885" fuel_abs="96.451109" electricity_abs="0"/>
    </tripinfo>
    <tripinfo id="L2-AV-2" depart="130.90" departLane="right-approaching_0" departPos="5.10" departSpeed="0.00" departDelay="3.90" arrival="204.70" arrivalLane="bottom-exit_0" arrivalPos="486.40" arrivalSpeed="15.17" duration="73.80" routeLength="992.21" waitingTime="0.00" waitingCount="0" stopTime="0.00" timeLoss="7.33" rerouteNo="0" devices="tripinfo_L2-AV-2 emissions_L2-AV-2 ssm_L2-AV-2 toc_L2-AV-2 driverstateL2-AV-2" vType="L2-AV-56" speedFactor="0.91" vaporized="">
        <emissions CO_abs="1787.319946" CO2_abs="222596.239909" HC_abs="10.711121" PMx_abs="2.459723" NOx_abs="77.329825" fuel_abs="95.685415" electricity_abs="0"/>
    </tripinfo>
    <tripinfo id="L4-CV-0" depart="120.00" departLane="bottom-approaching_0" departPos="5.10" departSpeed="0.00" departDelay="0.00" arrival="229.20" arrivalLane="top-exit_0" arrivalPos="486.40" arrivalSpeed="16.26" duration="109.20" routeLength="994.90" waitingTime="36.40" waitingCount="1" stopTime="0.00" timeLoss="47.92" rerouteNo="0" devices="tripinfo_L4-CV-0 emissions_L4-CV-0 ssm_L4-CV-0 toc_L4-CV-0 driverstateL4-CV-0" vType="L4-CV-89" speedFactor="0.98" vaporized="">
        <emissions CO_abs="8324.886871" CO2_abs="334984.342410" HC_abs="42.806534" PMx_abs="5.483393" NOx_abs="129.461937" fuel_abs="143.998764" electricity_abs="0"/>
    </tripinfo>
    <tripinfo id="L2-AV-0" depart="123.10" departLane="bottom-approaching_0" departPos="5.10" departSpeed="0.00" departDelay="3.10" arrival="229.30" arrivalLane="right-exit_0" arrivalPos="486.40" arrivalSpeed="16.59" duration="106.20" routeLength="979.43" waitingTime="31.60" waitingCount="1" stopTime="0.00" timeLoss="46.22" rerouteNo="0" devices="tripinfo_L2-AV-0 emissions_L2-AV-0 ssm_L2-AV-0 toc_L2-AV-0 driverstateL2-AV-0" vType="L2-AV-56" speedFactor="1.00" vaporized="">
        <emissions CO_abs="7898.159003" CO2_abs="326490.281183" HC_abs="40.968497" PMx_abs="5.345505" NOx_abs="126.273505" fuel_abs="140.347287" electricity_abs="0"/>
    </tripinfo>
    <tripinfo id="L0-HDV-3" depart="153.00" departLane="bottom-approaching_0" departPos="5.10" departSpeed="0.00" departDelay="0.00" arrival="229.60" arrivalLane="left-exit_0" arrivalPos="410.00" arrivalSpeed="16.53" duration="76.60" routeLength="992.31" waitingTime="4.70" waitingCount="1" stopTime="0.00" timeLoss="15.61" rerouteNo="0" devices="tripinfo_L0-HDV-3 emissions_L0-HDV-3 ssm_L0-HDV-3" vType="L0-HDV-25@L0-HDV-3" speedFactor="0.99" vaporized="">
        <emissions CO_abs="3661.069578" CO2_abs="228798.052727" HC_abs="21.913838" PMx_abs="4.119213" NOx_abs="92.184422" fuel_abs="98.350661" electricity_abs="0"/>
    </tripinfo>
    <tripinfo id="L4-CV-6" depart="165.00" departLane="top-approaching_0" departPos="5.10" departSpeed="0.00" departDelay="3.00" arrival="233.70" arrivalLane="bottom-exit_0" arrivalPos="486.40" arrivalSpeed="15.61" duration="68.70" routeLength="994.90" waitingTime="0.00" waitingCount="0" stopTime="0.00" timeLoss="4.84" rerouteNo="0" devices="tripinfo_L4-CV-6 emissions_L4-CV-6 ssm_L4-CV-6 toc_L4-CV-6 driverstateL4-CV-6" vType="L4-CV-81" speedFactor="0.94" vaporized="">
        <emissions CO_abs="1090.739661" CO2_abs="201704.522628" HC_abs="6.679448" PMx_abs="1.931893" NOx_abs="66.729186" fuel_abs="86.704920" electricity_abs="0"/>
    </tripinfo>
    <tripinfo id="L2-AV-11" depart="164.90" departLane="top-approaching_0" departPos="5.10" departSpeed="0.00" departDelay="6.40" arrival="234.80" arrivalLane="right-exit_1" arrivalPos="486.40" arrivalSpeed="19.04" duration="69.90" routeLength="992.21" waitingTime="0.00" waitingCount="0" stopTime="0.00" timeLoss="16.97" rerouteNo="0" devices="tripinfo_L2-AV-11 emissions_L2-AV-11 ssm_L2-AV-11 toc_L2-AV-11 driverstateL2-AV-11" vType="L2-AV-57" speedFactor="1.14" vaporized="">
        <emissions CO_abs="2483.705373" CO2_abs="193683.724601" HC_abs="14.938083" PMx_abs="3.176673" NOx_abs="74.704728" fuel_abs="83.256424" electricity_abs="0"/>
    </tripinfo>
    <tripinfo id="L4-AV-0" depart="123.00" departLane="bottom-approaching_0" departPos="5.10" departSpeed="0.00" departDelay="3.00" arrival="236.10" arrivalLane="top-exit_0" arrivalPos="486.40" arrivalSpeed="13.99" duration="113.10" routeLength="994.90" waitingTime="0.00" waitingCount="0" stopTime="0.00" timeLoss="41.89" rerouteNo="0" devices="tripinfo_L4-AV-0 emissions_L4-AV-0 ssm_L4-AV-0 toc_L4-AV-0 driverstateL4-AV-0" vType="L4-AV-74" speedFactor="0.84" vaporized="">
        <emissions CO_abs="2209.408294" CO2_abs="222505.921662" HC_abs="13.492562" PMx_abs="2.497145" NOx_abs="78.734042" fuel_abs="95.646938" electricity_abs="0"/>
    </tripinfo>
    <tripinfo id="L4-AV-6" depart="168.00" departLane="top-approaching_0" departPos="5.10" departSpeed="0.00" departDelay="6.00" arrival="237.00" arrivalLane="bottom-exit_0" arrivalPos="486.40" arrivalSpeed="16.95" duration="69.00" routeLength="994.90" waitingTime="0.10" waitingCount="1" stopTime="0.00" timeLoss="10.21" rerouteNo="0" devices="tripinfo_L4-AV-6 emissions_L4-AV-6 ssm_L4-AV-6 toc_L4-AV-6 driverstateL4-AV-6" vType="L4-AV-59" speedFactor="1.02" vaporized="">
        <emissions CO_abs="1974.102288" CO2_abs="227291.627232" HC_abs="11.606343" PMx_abs="2.798148" NOx_abs="79.673355" fuel_abs="97.703565" electricity_abs="0"/>
    </tripinfo>
    <tripinfo id="L2-CV-11" depart="161.80" departLane="top-approaching_0" departPos="5.10" departSpeed="0.00" departDelay="3.30" arrival="237.90" arrivalLane="right-exit_0" arrivalPos="486.40" arrivalSpeed="14.87" duration="76.10" routeLength="992.21" waitingTime="0.00" waitingCount="0" stopTime="0.00" timeLoss="8.26" rerouteNo="0" devices="tripinfo_L2-CV-11 emissions_L2-CV-11 ssm_L2-CV-11 toc_L2-CV-11 driverstateL2-CV-11" vType="L2-CV-23" speedFactor="0.89" vaporized="">
        <emissions CO_abs="1990.698088" CO2_abs="230048.335180" HC_abs="11.880135" PMx_abs="2.616172" NOx_abs="80.766409" fuel_abs="98.888779" electricity_abs="0"/>
    </tripinfo>
    <tripinfo id="L2-AV-3" depart="130.50" departLane="bottom-approaching_0" departPos="5.10" departSpeed="0.00" departDelay="0.00" arrival="238.40" arrivalLane="top-exit_0" arrivalPos="486.40" arrivalSpeed="14.65" duration="107.90" routeLength="994.90" waitingTime="0.00" waitingCount="0" stopTime="0.00" timeLoss="39.88" rerouteNo="0" devices="tripinfo_L2-AV-3 emissions_L2-AV-3 ssm_L2-AV-3 toc_L2-AV-3 driverstateL2-AV-3" vType="L2-AV-42" speedFactor="0.88" vaporized="">
        <emissions CO_abs="2706.399873" CO2_abs="232274.673091" HC_abs="15.745455" PMx_abs="2.985832" NOx_abs="84.848888" fuel_abs="99.845857" electricity_abs="0"/>
    </tripinfo>
    <tripinfo id="L4-CV-8" depart="176.00" departLane="bottom-approaching_0" departPos="5.10" departSpeed="0.00" departDelay="0.00" arrival="242.60" arrivalLane="top-exit_0" arrivalPos="486.40" arrivalSpeed="16.25" duration="66.60" routeLength="994.90" waitingTime="0.00" waitingCount="0" stopTime="0.00" timeLoss="5.33" rerouteNo="0" devices="tripinfo_L4-CV-8 emissions_L4-CV-8 ssm_L4-CV-8 toc_L4-CV-8 driverstateL4-CV-8" vType="L4-CV-30" speedFactor="0.98" vaporized="">
        <emissions CO_abs="1153.674350" CO2_abs="203310.008410" HC_abs="6.953308" PMx_abs="2.073559" NOx_abs="67.636732" fuel_abs="87.394943" electricity_abs="0"/>
    </tripinfo>
    <tripinfo id="L0-HDV-5" depart="176.20" departLane="top-approaching_0" departPos="5.10" departSpeed="0.00" departDelay="1.20" arrival="243.30" arrivalLane="bottom-exit_0" arrivalPos="486.40" arrivalSpeed="16.92" duration="67.10" routeLength="994.90" waitingTime="0.00" waitingCount="0" stopTime="0.00" timeLoss="8.37" rerouteNo="0" devices="tripinfo_L0-HDV-5 emissions_L0-HDV-5 ssm_L0-HDV-5" vType="L0-HDV-86" speedFactor="1.02" vaporized="">
        <emissions CO_abs="1775.678394" CO2_abs="160814.115369" HC_abs="11.577048" PMx_abs="2.426181" NOx_abs="60.531106" fuel_abs="69.127360" electricity_abs="0"/>
    </tripinfo>
    <tripinfo id="L4-AV-8" depart="179.10" departLane="bottom-approaching_0" departPos="5.10" departSpeed="0.00" departDelay="3.10" arrival="246.00" arrivalLane="top-exit_0" arrivalPos="486.40" arrivalSpeed="16.60" duration="66.90" routeLength="994.90" waitingTime="0.00" waitingCount="0" stopTime="0.00" timeLoss="6.93" rerouteNo="0" devices="tripinfo_L4-AV-8 emissions_L4-AV-8 ssm_L4-AV-8 toc_L4-AV-8 driverstateL4-AV-8" vType="L4-AV-88" speedFactor="1.00" vaporized="">
        <emissions CO_abs="1421.432187" CO2_abs="207333.561971" HC_abs="8.074837" PMx_abs="2.215366" NOx_abs="69.553962" fuel_abs="89.124537" electricity_abs="0"/>
    </tripinfo>
    <tripinfo id="L4-AV-9" depart="187.30" departLane="top-approaching_0" departPos="5.10" departSpeed="0.00" departDelay="4.30" arrival="250.80" arrivalLane="bottom-exit_0" arrivalPos="486.40" arrivalSpeed="19.05" duration="63.50" routeLength="994.90" waitingTime="0.00" waitingCount="0" stopTime="0.00" timeLoss="11.13" rerouteNo="0" devices="tripinfo_L4-AV-9 emissions_L4-AV-9 ssm_L4-AV-9 toc_L4-AV-9 driverstateL4-AV-9" vType="L4-AV-34" speedFactor="1.14" vaporized="">
        <emissions CO_abs="1307.922789" CO2_abs="214072.306401" HC_abs="8.090071" PMx_abs="2.481105" NOx_abs="72.857815" fuel_abs="92.020934" electricity_abs="0"/>
    </tripinfo>
    <tripinfo id="L0-HDV-4" depart="168.20" departLane="top-approaching_0" departPos="5.10" departSpeed="0.00" departDelay="4.20" arrival="257.30" arrivalLane="right-exit_0" arrivalPos="486.40" arrivalSpeed="14.46" duration="89.10" routeLength="992.21" waitingTime="5.70" waitingCount="1" stopTime="0.00" timeLoss="19.52" rerouteNo="0" devices="tripinfo_L0-HDV-4 emissions_L0-HDV-4 ssm_L0-HDV-4" vType="L0-HDV-98" speedFactor="0.87" vaporized="">
        <emissions CO_abs="3611.663031" CO2_abs="202988.584392" HC_abs="20.849935" PMx_abs="3.116171" NOx_abs="78.610438" fuel_abs="87.257334" electricity_abs="0"/>
    </tripinfo>
    <tripinfo id="L2-CV-19" depart="191.00" departLane="top-approaching_0" departPos="5.10" departSpeed="0.00" departDelay="4.50" arrival="259.80" arrivalLane="right-exit_1" arrivalPos="486.40" arrivalSpeed="16.14" duration="68.80" routeLength="992.21" waitingTime="0.00" waitingCount="0" stopTime="0.00" timeLoss="6.27" rerouteNo="0" devices="tripinfo_L2-CV-19 emissions_L2-CV-19 ssm_L2-CV-19 toc_L2-CV-19 driverstateL2-CV-19" vType="L2-CV-38" speedFactor="0.97" vaporized="">
        <emissions CO_abs="1537.825580" CO2_abs="216721.403321" HC_abs="9.713033" PMx_abs="2.539688" NOx_abs="75.565697" fuel_abs="93.159758" electricity_abs="0"/>
    </tripinfo>
    <tripinfo id="L2-AV-16" depart="181.90" departLane="left-long-approaching_0" departPos="5.10" departSpeed="0.00" departDelay="5.90" arrival="276.40" arrivalLane="top-exit_0" arrivalPos="486.40" arrivalSpeed="17.75" duration="94.50" routeLength="992.31" waitingTime="26.10" waitingCount="1" stopTime="0.00" timeLoss="37.60" rerouteNo="0" devices="tripinfo_L2-AV-16 emissions_L2-AV-16 ssm_L2-AV-16 toc_L2-AV-16 driverstateL2-AV-16" vType="L2-AV-Left-3" speedFactor="1.06" vaporized="">
        <emissions CO_abs="6851.985742" CO2_abs="305601.302559" HC_abs="36.148119" PMx_abs="5.253247" NOx_abs="119.268878" fuel_abs="131.367067" electricity_abs="0"/>
    </tripinfo>
    <tripinfo id="L2-AV-4" depart="138.20" departLane="left-long-approaching_0" departPos="5.10" departSpeed="0.00" departDelay="4.20" arrival="279.50" arrivalLane="bottom-exit_0" arrivalPos="486.40" arrivalSpeed="16.55" duration="141.30" routeLength="979.53" waitingTime="67.20" waitingCount="1" stopTime="0.00" timeLoss="81.09" rerouteNo="0" devices="tripinfo_L2-AV-4 emissions_L2-AV-4 ssm_L2-AV-4 toc_L2-AV-4 driverstateL2-AV-4" vType="L2-AV-Right-30" speedFactor="0.99" vaporized="">
        <emissions CO_abs="13729.764087" CO2_abs="420854.122392" HC_abs="69.712080" PMx_abs="7.680925" NOx_abs="169.298236" fuel_abs="180.912976" electricity_abs="0"/>
    </tripinfo>
    <tripinfo id="L2-CV-4" depart="134.00" departLane="left-long-approaching_0" departPos="5.10" departSpeed="0.00" departDelay="0.00" arrival="280.80" arrivalLane="right-exit_0" arrivalPos="486.40" arrivalSpeed="19.13" duration="146.80" routeLength="995.23" waitingTime="70.30" waitingCount="2" stopTime="0.00" timeLoss="94.73" rerouteNo="0" devices="tripinfo_L2-CV-4 emissions_L2-CV-4 ssm_L2-CV-4 toc_L2-CV-4 driverstateL2-CV-4" vType="L2-CV-79@L2-CV-4" speedFactor="1.15" vaporized="">
        <emissions CO_abs="15246.095469" CO2_abs="464706.263711" HC_abs="78.945085" PMx_abs="8.948017" NOx_abs="189.846821" fuel_abs="199.763401" electricity_abs="0"/>
    </tripinfo>
    <tripinfo id="L4-CV-3" depart="141.00" departLane="right-approaching_0" departPos="5.10" departSpeed="0.00" departDelay="0.00" arrival="281.20" arrivalLane="top-exit_0" arrivalPos="486.40" arrivalSpeed="16.52" duration="140.20" routeLength="979.43" waitingTime="62.70" waitingCount="1" stopTime="0.00" timeLoss="79.99" rerouteNo="0" devices="tripinfo_L4-CV-3 emissions_L4-CV-3 ssm_L4-CV-3 toc_L4-CV-3 driverstateL4-CV-3" vType="L4-CV-12" speedFactor="0.99" vaporized="">
        <emissions CO_abs="13370.227154" CO2_abs="416694.550287" HC_abs="68.143594" PMx_abs="7.504757" NOx_abs="167.209413" fuel_abs="179.124865" electricity_abs="0"/>
    </tripinfo>
    <tripinfo id="L0-HDV-2" depart="148.10" departLane="right-approaching_0" departPos="5.10" departSpeed="0.00" departDelay="6.10" arrival="282.90" arrivalLane="top-exit_0" arrivalPos="486.40" arrivalSpeed="17.21" duration="134.80" routeLength="979.43" waitingTime="8.40" waitingCount="3" stopTime="0.00" timeLoss="77.34" rerouteNo="0" devices="tripinfo_L0-HDV-2 emissions_L0-HDV-2 ssm_L0-HDV-2" vType="L0-HDV-32" speedFactor="1.04" vaporized="">
        <emissions CO_abs="7842.528984" CO2_abs="303343.903124" HC_abs="42.762132" PMx_abs="5.835470" NOx_abs="125.614581" fuel_abs="130.396696" electricity_abs="0"/>
    </tripinfo>
    <tripinfo id="L2-CV-12" depart="162.00" departLane="left-long-approaching_0" departPos="5.10" departSpeed="0.00" departDelay="0.00" arrival="283.00" arrivalLane="bottom-exit_0" arrivalPos="486.40" arrivalSpeed="15.36" duration="121.00" routeLength="979.53" waitingTime="40.30" waitingCount="1" stopTime="0.00" timeLoss="56.33" rerouteNo="0" devices="tripinfo_L2-CV-12 emissions_L2-CV-12 ssm_L2-CV-12 toc_L2-CV-12 driverstateL2-CV-12" vType="L2-CV-Right-44" speedFactor="0.92" vaporized="">
        <emissions CO_abs="7284.943885" CO2_abs="316436.246543" HC_abs="38.170359" PMx_abs="4.865725" NOx_abs="120.774788" fuel_abs="136.025559" electricity_abs="0"/>
    </tripinfo>
    <tripinfo id="L2-AV-12" depart="164.80" departLane="left-long-approaching_0" departPos="5.10" departSpeed="0.00" departDelay="2.80" arrival="285.10" arrivalLane="bottom-exit_0" arrivalPos="486.40" arrivalSpeed="15.32" duration="120.30" routeLength="979.53" waitingTime="1.50" waitingCount="1" stopTime="0.00" timeLoss="55.25" rerouteNo="0" devices="tripinfo_L2-AV-12 emissions_L2-AV-12 ssm_L2-AV-12 toc_L2-AV-12 driverstateL2-AV-12" vType="L2-AV-Right-81" speedFactor="0.92" vaporized="">
        <emissions CO_abs="2973.928431" CO2_abs="249770.893330" HC_abs="16.981854" PMx_abs="3.315686" NOx_abs="91.351512" fuel_abs="107.366705" electricity_abs="0"/>
    </tripinfo>
    <tripinfo id="L4-AV-3" depart="144.90" departLane="right-approaching_0" departPos="5.10" departSpeed="0.00" departDelay="3.90" arrival="285.60" arrivalLane="top-exit_0" arrivalPos="486.40" arrivalSpeed="14.62" duration="140.70" routeLength="979.43" waitingTime="8.70" waitingCount="1" stopTime="0.00" timeLoss="72.62" rerouteNo="0" devices="tripinfo_L4-AV-3 emissions_L4-AV-3 ssm_L4-AV-3 toc_L4-AV-3 driverstateL4-AV-3" vType="L4-AV-84" speedFactor="0.88" vaporized="">
        <emissions CO_abs="2669.287382" CO2_abs="232677.000410" HC_abs="15.415343" PMx_abs="2.785365" NOx_abs="83.279605" fuel_abs="100.019095" electricity_abs="0"/>
    </tripinfo>
    <tripinfo id="L2-AV-8" depart="155.30" departLane="right-approaching_0" departPos="5.10" departSpeed="0.00" departDelay="7.30" arrival="287.30" arrivalLane="top-exit_0" arrivalPos="486.40" arrivalSpeed="15.67" duration="132.00" routeLength="979.43" waitingTime="0.00" waitingCount="0" stopTime="0.00" timeLoss="68.49" rerouteNo="0" devices="tripinfo_L2-AV-8 emissions_L2-AV-8 ssm_L2-AV-8 toc_L2-AV-8 driverstateL2-AV-8" vType="L2-AV-84" speedFactor="0.94" vaporized="">
        <emissions CO_abs="3042.114819" CO2_abs="199408.572430" HC_abs="17.017256" PMx_abs="2.930389" NOx_abs="75.547183" fuel_abs="85.718051" electricity_abs="0"/>
    </tripinfo>
    <tripinfo id="L2-AV-15" depart="172.90" departLane="right-approaching_0" departPos="5.10" departSpeed="0.00" departDelay="0.40" arrival="288.30" arrivalLane="top-exit_1" arrivalPos="486.40" arrivalSpeed="18.06" duration="115.40" routeLength="979.43" waitingTime="0.00" waitingCount="0" stopTime="0.00" timeLoss="60.20" rerouteNo="0" devices="tripinfo_L2-AV-15 emissions_L2-AV-15 ssm_L2-AV-15 toc_L2-AV-15 driverstateL2-AV-15" vType="L2-AV-98" speedFactor="1.08" vaporized="">
        <emissions CO_abs="3491.748844" CO2_abs="244159.822028" HC_abs="19.984958" PMx_abs="3.685017" NOx_abs="91.973531" fuel_abs="104.954691" electricity_abs="0"/>
    </tripinfo>
    <tripinfo id="L2-AV-14" depart="169.00" departLane="right-approaching_0" departPos="5.10" departSpeed="0.00" departDelay="0.00" arrival="289.00" arrivalLane="top-exit_0" arrivalPos="486.40" arrivalSpeed="17.19" duration="120.00" routeLength="979.43" waitingTime="0.00" waitingCount="0" stopTime="0.00" timeLoss="62.01" rerouteNo="0" devices="tripinfo_L2-AV-14 emissions_L2-AV-14 ssm_L2-AV-14 toc_L2-AV-14 driverstateL2-AV-14" vType="L2-AV-1" speedFactor="1.03" vaporized="">
        <emissions CO_abs="3566.932783" CO2_abs="207028.860998" HC_abs="20.663249" PMx_abs="3.352006" NOx_abs="81.233083" fuel_abs="88.993721" electricity_abs="0"/>
    </tripinfo>
    <tripinfo id="L4-CV-1" depart="127.00" departLane="top-approaching_0" departPos="5.10" departSpeed="0.00" departDelay="0.00" arrival="290.40" arrivalLane="left-exit_1" arrivalPos="410.00" arrivalSpeed="18.72" duration="163.40" routeLength="979.53" waitingTime="78.60" waitingCount="3" stopTime="0.00" timeLoss="110.30" rerouteNo="0" devices="tripinfo_L4-CV-1 emissions_L4-CV-1 ssm_L4-CV-1 toc_L4-CV-1 driverstateL4-CV-1" vType="L4-CV-15@L4-CV-1" speedFactor="1.12" vaporized="">
        <emissions CO_abs="15529.293246" CO2_abs="462970.902371" HC_abs="79.811770" PMx_abs="8.978611" NOx_abs="189.836943" fuel_abs="199.017511" electricity_abs="0"/>
    </tripinfo>
    <tripinfo id="L0-HDV-6" depart="186.00" departLane="left-long-approaching_0" departPos="5.10" departSpeed="0.00" departDelay="0.00" arrival="292.30" arrivalLane="bottom-exit_0" arrivalPos="486.40" arrivalSpeed="13.63" duration="106.30" routeLength="979.53" waitingTime="0.90" waitingCount="1" stopTime="0.00" timeLoss="33.26" rerouteNo="0" devices="tripinfo_L0-HDV-6 emissions_L0-HDV-6 ssm_L0-HDV-6" vType="L0-HDV-68" speedFactor="0.82" vaporized="">
        <emissions CO_abs="3466.271428" CO2_abs="183582.614019" HC_abs="19.641195" PMx_abs="2.695270" NOx_abs="70.572516" fuel_abs="78.915733" electricity_abs="0"/>
    </tripinfo>
    <tripinfo id="L2-AV-25" depart="207.50" departLane="right-approaching_0" departPos="5.10" departSpeed="0.00" departDelay="0.00" arrival="294.20" arrivalLane="top-exit_1" arrivalPos="486.40" arrivalSpeed="18.27" duration="86.70" routeLength="979.43" waitingTime="0.00" waitingCount="0" stopTime="0.00" timeLoss="32.16" rerouteNo="0" devices="tripinfo_L2-AV-25 emissions_L2-AV-25 ssm_L2-AV-25 toc_L2-AV-25 driverstateL2-AV-25" vType="L2-AV-22" speedFactor="1.10" vaporized="">
        <emissions CO_abs="3345.826111" CO2_abs="247257.986262" HC_abs="19.438118" PMx_abs="3.690564" NOx_abs="92.978430" fuel_abs="106.286372" electricity_abs="0"/>
    </tripinfo>
    <tripinfo id="L4-CV-7" depart="171.10" departLane="left-long-approaching_0" departPos="5.10" departSpeed="0.00" departDelay="2.10" arrival="295.70" arrivalLane="right-exit_0" arrivalPos="486.40" arrivalSpeed="16.97" duration="124.60" routeLength="995.23" waitingTime="34.40" waitingCount="18" stopTime="0.00" timeLoss="65.98" rerouteNo="0" devices="tripinfo_L4-CV-7 emissions_L4-CV-7 ssm_L4-CV-7 toc_L4-CV-7 driverstateL4-CV-7" vType="L4-CV-59@L4-CV-7" speedFactor="1.02" vaporized="">
        <emissions CO_abs="7490.448089" CO2_abs="334344.684787" HC_abs="40.050626" PMx_abs="5.355160" NOx_abs="128.914337" fuel_abs="143.723426" electricity_abs="0"/>
    </tripinfo>
    <tripinfo id="L2-AV-24" depart="204.00" departLane="right-approaching_0" departPos="5.10" departSpeed="0.00" departDelay="0.00" arrival="297.90" arrivalLane="top-exit_0" arrivalPos="486.40" arrivalSpeed="15.03" duration="93.90" routeLength="979.43" waitingTime="0.00" waitingCount="0" stopTime="0.00" timeLoss="27.67" rerouteNo="0" devices="tripinfo_L2-AV-24 emissions_L2-AV-24 ssm_L2-AV-24 toc_L2-AV-24 driverstateL2-AV-24" vType="L2-AV-14" speedFactor="0.90" vaporized="">
        <emissions CO_abs="3110.330988" CO2_abs="244736.605841" HC_abs="17.819582" PMx_abs="3.083759" NOx_abs="89.171075" fuel_abs="105.203070" electricity_abs="0"/>
    </tripinfo>
    <tripinfo id="L2-CV-27" depart="214.50" departLane="right-approaching_0" departPos="5.10" departSpeed="0.00" departDelay="0.00" arrival="299.70" arrivalLane="top-exit_0" arrivalPos="486.40" arrivalSpeed="16.74" duration="85.20" routeLength="979.43" waitingTime="0.00" waitingCount="0" stopTime="0.00" timeLoss="25.66" rerouteNo="0" devices="tripinfo_L2-CV-27 emissions_L2-CV-27 ssm_L2-CV-27 toc_L2-CV-27 driverstateL2-CV-27" vType="L2-CV-97" speedFactor="1.00" vaporized="">
        <emissions CO_abs="3332.575941" CO2_abs="247287.405456" HC_abs="19.725300" PMx_abs="3.568848" NOx_abs="92.965685" fuel_abs="106.299186" electricity_abs="0"/>
    </tripinfo>
    <tripinfo id="L2-AV-17" depart="182.00" departLane="left-long-approaching_0" departPos="5.10" departSpeed="0.00" departDelay="2.50" arrival="301.00" arrivalLane="top-exit_1" arrivalPos="486.40" arrivalSpeed="18.33" duration="119.00" routeLength="992.31" waitingTime="33.50" waitingCount="2" stopTime="0.00" timeLoss="63.98" rerouteNo="0" devices="tripinfo_L2-AV-17 emissions_L2-AV-17 ssm_L2-AV-17 toc_L2-AV-17 driverstateL2-AV-17" vType="L2-AV-Left-15" speedFactor="1.10" vaporized="">
        <emissions CO_abs="6349.066159" CO2_abs="306526.296188" HC_abs="34.378969" PMx_abs="5.192120" NOx_abs="119.392413" fuel_abs="131.764427" electricity_abs="0"/>
    </tripinfo>
    <tripinfo id="L4-AV-1" depart="130.90" departLane="top-approaching_0" departPos="5.10" departSpeed="0.00" departDelay="3.90" arrival="301.80" arrivalLane="left-exit_0" arrivalPos="410.00" arrivalSpeed="15.01" duration="170.90" routeLength="979.53" waitingTime="56.00" waitingCount="3" stopTime="0.00" timeLoss="104.56" rerouteNo="0" devices="tripinfo_L4-AV-1 emissions_L4-AV-1 ssm_L4-AV-1 toc_L4-AV-1 driverstateL4-AV-1" vType="L4-AV-4@L4-AV-1" speedFactor="0.90" vaporized="">
        <emissions CO_abs="12645.530126" CO2_abs="379939.013649" HC_abs="64.568605" PMx_abs="6.937534" NOx_abs="154.348435" fuel_abs="163.324918" electricity_abs="0"/>
    </tripinfo>
    <tripinfo id="L2-CV-10" depart="155.00" departLane="left-long-approaching_0" departPos="5.10" departSpeed="0.00" departDelay="0.00" arrival="302.50" arrivalLane="right-exit_0" arrivalPos="486.40" arrivalSpeed="17.04" duration="147.50" routeLength="995.23" waitingTime="51.50" waitingCount="29" stopTime="0.00" timeLoss="89.10" rerouteNo="0" devices="tripinfo_L2-CV-10 emissions_L2-CV-10 ssm_L2-CV-10 toc_L2-CV-10 driverstateL2-CV-10" vType="L2-CV-94" speedFactor="1.02" vaporized="">
        <emissions CO_abs="11202.354658" CO2_abs="393204.472091" HC_abs="58.462300" PMx_abs="6.858055" NOx_abs="156.319624" fuel_abs="169.026415" electricity_abs="0"/>
    </tripinfo>
    <tripinfo id="L2-CV-6" depart="141.00" departLane="left-long-approaching_0" departPos="5.10" departSpeed="0.00" departDelay="0.00" arrival="303.20" arrivalLane="top-exit_0" arrivalPos="486.40" arrivalSpeed="16.27" duration="162.20" routeLength="997.47" waitingTime="77.40" waitingCount="27" stopTime="0.00" timeLoss="100.12" rerouteNo="0" devices="tripinfo_L2-CV-6 emissions_L2-CV-6 ssm_L2-CV-6 toc_L2-CV-6 driverstateL2-CV-6" vType="L2-CV-Left-98@L2-CV-6" speedFactor="0.98" vaporized="">
        <emissions CO_abs="14164.452732" CO2_abs="438076.450603" HC_abs="72.255555" PMx_abs="7.985316" NOx_abs="176.494380" fuel_abs="188.316285" electricity_abs="0"/>
    </tripinfo>
    <tripinfo id="L2-CV-13" depart="167.70" departLane="left-long-approaching_0" departPos="5.10" departSpeed="0.00" departDelay="2.20" arrival="303.80" arrivalLane="right-exit_0" arrivalPos="486.40" arrivalSpeed="17.62" duration="136.10" routeLength="995.23" waitingTime="39.40" waitingCount="43" stopTime="0.00" timeLoss="79.73" rerouteNo="0" devices="tripinfo_L2-CV-13 emissions_L2-CV-13 ssm_L2-CV-13 toc_L2-CV-13 driverstateL2-CV-13" vType="L2-CV-30@L2-CV-13" speedFactor="1.06" vaporized="">
        <emissions CO_abs="9851.789667" CO2_abs="362056.072301" HC_abs="51.472672" PMx_abs="6.468801" NOx_abs="144.397619" fuel_abs="155.636052" electricity_abs="0"/>
    </tripinfo>