<?xml version="1.0" encoding="UTF-8"?>

<!-- generated on 03/27/21 20:27:28 by Eclipse SUMO GUI Version 1.8.0
<configuration xmlns:xsi="http://www.w3.org/2001/XMLSchema-instance" xsi:noNamespaceSchemaLocation="http://sumo.dlr.de/xsd/sumoConfiguration.xsd">

    <input>
        <net-file value="Collision\RealTMSPenetration3\../CollisionIntersection.net.xml"/>
        <route-files value="Collision\RealTMSPenetration3\../CrashedVehicleRoutes.rou.xml,Collision\RealTMSPenetration3\Route-Files/L4-CV-Route.rou.xml,Collision\RealTMSPenetration3\Route-Files/L4-AV-Route.rou.xml,Collision\RealTMSPenetration3\Route-Files/L2-CV-Route.rou.xml,Collision\RealTMSPenetration3\Route-Files/L2-AV-Route.rou.xml,Collision\RealTMSPenetration3\Route-Files/L0-HDV-Route.rou.xml"/>
        <additional-files value="Collision\RealTMSPenetration3\../Additional-Files/Collision-Detectors.add.xml,Collision\RealTMSPenetration3\../Additional-Files/Collision-TMS-Rerouters.add.xml,Collision\RealTMSPenetration3\PreparingVehicleModels/Vehicle-Models/L4-CV.add.xml,Collision\RealTMSPenetration3\PreparingVehicleModels/Vehicle-Models/L4-CV-Left.add.xml,Collision\RealTMSPenetration3\PreparingVehicleModels/Vehicle-Models/L4-CV-Right.add.xml,Collision\RealTMSPenetration3\PreparingVehicleModels/Vehicle-Models/L4-AV.add.xml,Collision\RealTMSPenetration3\PreparingVehicleModels/Vehicle-Models/L4-AV-Left.add.xml,Collision\RealTMSPenetration3\PreparingVehicleModels/Vehicle-Models/L4-AV-Right.add.xml,Collision\RealTMSPenetration3\PreparingVehicleModels/Vehicle-Models/L2-CV.add.xml,Collision\RealTMSPenetration3\PreparingVehicleModels/Vehicle-Models/L2-CV-Left.add.xml,Collision\RealTMSPenetration3\PreparingVehicleModels/Vehicle-Models/L2-CV-Right.add.xml,Collision\RealTMSPenetration3\PreparingVehicleModels/Vehicle-Models/L2-AV.add.xml,Collision\RealTMSPenetration3\PreparingVehicleModels/Vehicle-Models/L2-AV-Left.add.xml,Collision\RealTMSPenetration3\PreparingVehicleModels/Vehicle-Models/L2-AV-Right.add.xml,Collision\RealTMSPenetration3\PreparingVehicleModels/Vehicle-Models/L0-HDV.add.xml,Collision\RealTMSPenetration3\PreparingVehicleModels/Vehicle-Models/L0-HDV-Left.add.xml,Collision\RealTMSPenetration3\PreparingVehicleModels/Vehicle-Models/L0-HDV-Straight.add.xml,Collision\RealTMSPenetration3\../Additional-Files/Collision-Traffic-lights.add.xml,Collision\RealTMSPenetration3\../Additional-Files/Collision-Traffic-Signs.add.xml"/>
    </input>

    <output>
        <tripinfo-output value="Collision\RealTMSPenetration3\Output-Files\TripInfo.xml"/>
    </output>

    <time>
        <begin value="0"/>
        <step-length value="0.1"/>
    </time>

    <processing>
        <ignore-route-errors value="true"/>
        <waiting-time-memory value="300"/>
        <default.action-step-length value="0.1"/>
    </processing>

    <report>
        <no-warnings value="true"/>
    </report>

    <emissions>
        <device.emissions.probability value="1"/>
    </emissions>

    <traci_server>
        <remote-port value="53384"/>
    </traci_server>

    <gui_only>
        <quit-on-end value="true"/>
        <start value="true"/>
        <tracker-interval value="0.1"/>
    </gui_only>

</configuration>
-->

<tripinfos xmlns:xsi="http://www.w3.org/2001/XMLSchema-instance" xsi:noNamespaceSchemaLocation="http://sumo.dlr.de/xsd/tripinfo_file.xsd">
    <tripinfo id="L0-HDV-2" depart="136.80" departLane="bottom-approaching_0" departPos="5.10" departSpeed="0.00" departDelay="0.00" arrival="233.20" arrivalLane="right-exit_0" arrivalPos="486.40" arrivalSpeed="17.32" duration="96.40" routeLength="979.43" waitingTime="24.30" waitingCount="1" stopTime="0.00" timeLoss="38.99" rerouteNo="0" devices="tripinfo_L0-HDV-2 emissions_L0-HDV-2 ssm_L0-HDV-2" vType="L0-HDV-32" speedFactor="1.04" vaporized="">
        <emissions CO_abs="7466.783790" CO2_abs="305979.178612" HC_abs="41.090687" PMx_abs="5.929637" NOx_abs="126.542429" fuel_abs="131.529097" electricity_abs="0"/>
    </tripinfo>
    <tripinfo id="L2-CV-3" depart="132.60" departLane="top-approaching_0" departPos="5.10" departSpeed="0.00" departDelay="0.00" arrival="233.70" arrivalLane="bottom-exit_0" arrivalPos="486.40" arrivalSpeed="17.62" duration="101.10" routeLength="994.90" waitingTime="28.90" waitingCount="1" stopTime="0.00" timeLoss="44.49" rerouteNo="0" devices="tripinfo_L2-CV-3 emissions_L2-CV-3 ssm_L2-CV-3 toc_L2-CV-3 driverstateL2-CV-3" vType="L2-CV-30" speedFactor="1.06" vaporized="">
        <emissions CO_abs="7567.266522" CO2_abs="330505.582092" HC_abs="39.705598" PMx_abs="5.520511" NOx_abs="127.836011" fuel_abs="142.072904" electricity_abs="0"/>
    </tripinfo>
    <tripinfo id="L2-CV-1" depart="124.20" departLane="bottom-approaching_0" departPos="5.10" departSpeed="0.00" departDelay="0.00" arrival="235.70" arrivalLane="top-exit_1" arrivalPos="486.40" arrivalSpeed="20.01" duration="111.50" routeLength="994.90" waitingTime="28.20" waitingCount="2" stopTime="0.00" timeLoss="61.74" rerouteNo="0" devices="tripinfo_L2-CV-1 emissions_L2-CV-1 ssm_L2-CV-1 toc_L2-CV-1 driverstateL2-CV-1" vType="L2-CV-0" speedFactor="1.20" vaporized="">
        <emissions CO_abs="4217.687946" CO2_abs="263076.004602" HC_abs="24.645722" PMx_abs="4.469827" NOx_abs="102.318663" fuel_abs="113.085821" electricity_abs="0"/>
    </tripinfo>
    <tripinfo id="L4-AV-6" depart="145.20" departLane="top-approaching_0" departPos="5.10" departSpeed="0.00" departDelay="0.00" arrival="237.30" arrivalLane="bottom-exit_0" arrivalPos="486.40" arrivalSpeed="17.00" duration="92.10" routeLength="994.90" waitingTime="0.00" waitingCount="0" stopTime="0.00" timeLoss="33.45" rerouteNo="0" devices="tripinfo_L4-AV-6 emissions_L4-AV-6 ssm_L4-AV-6 toc_L4-AV-6 driverstateL4-AV-6" vType="L4-AV-30" speedFactor="1.02" vaporized="">
        <emissions CO_abs="2789.386313" CO2_abs="246661.989754" HC_abs="16.266887" PMx_abs="3.357188" NOx_abs="89.846233" fuel_abs="106.030171" electricity_abs="0"/>
    </tripinfo>
    <tripinfo id="L2-AV-0" depart="123.00" departLane="bottom-approaching_0" departPos="5.10" departSpeed="0.00" departDelay="3.00" arrival="238.50" arrivalLane="top-exit_1" arrivalPos="486.40" arrivalSpeed="16.59" duration="115.50" routeLength="994.90" waitingTime="31.80" waitingCount="1" stopTime="0.00" timeLoss="55.47" rerouteNo="0" devices="tripinfo_L2-AV-0 emissions_L2-AV-0 ssm_L2-AV-0 toc_L2-AV-0 driverstateL2-AV-0" vType="L2-AV-56" speedFactor="1.00" vaporized="">
        <emissions CO_abs="2817.360914" CO2_abs="171236.564805" HC_abs="16.135261" PMx_abs="2.839918" NOx_abs="67.566935" fuel_abs="73.607711" electricity_abs="0"/>
    </tripinfo>
    <tripinfo id="L4-AV-0" depart="120.00" departLane="bottom-approaching_0" departPos="5.10" departSpeed="0.00" departDelay="0.00" arrival="238.70" arrivalLane="top-exit_0" arrivalPos="486.40" arrivalSpeed="13.99" duration="118.70" routeLength="994.90" waitingTime="37.00" waitingCount="1" stopTime="0.00" timeLoss="47.51" rerouteNo="0" devices="tripinfo_L4-AV-0 emissions_L4-AV-0 ssm_L4-AV-0 toc_L4-AV-0 driverstateL4-AV-0" vType="L4-AV-74" speedFactor="0.84" vaporized="">
        <emissions CO_abs="8088.645374" CO2_abs="325834.253083" HC_abs="42.517502" PMx_abs="4.910874" NOx_abs="124.610608" fuel_abs="140.066127" electricity_abs="0"/>
    </tripinfo>
    <tripinfo id="L4-AV-10" depart="162.00" departLane="bottom-approaching_0" departPos="5.10" departSpeed="0.00" departDelay="0.00" arrival="239.80" arrivalLane="right-exit_0" arrivalPos="486.40" arrivalSpeed="17.30" duration="77.80" routeLength="979.43" waitingTime="0.00" waitingCount="0" stopTime="0.00" timeLoss="20.21" rerouteNo="0" devices="tripinfo_L4-AV-10 emissions_L4-AV-10 ssm_L4-AV-10 toc_L4-AV-10 driverstateL4-AV-10" vType="L4-AV-28" speedFactor="1.04" vaporized="">
        <emissions CO_abs="2967.836034" CO2_abs="259438.433136" HC_abs="17.569386" PMx_abs="3.606751" NOx_abs="95.496394" fuel_abs="111.522176" electricity_abs="0"/>
    </tripinfo>
    <tripinfo id="L4-AV-9" depart="157.80" departLane="top-approaching_0" departPos="5.10" departSpeed="0.00" departDelay="0.00" arrival="241.70" arrivalLane="bottom-exit_0" arrivalPos="486.40" arrivalSpeed="15.96" duration="83.90" routeLength="994.90" waitingTime="0.00" waitingCount="0" stopTime="0.00" timeLoss="21.41" rerouteNo="0" devices="tripinfo_L4-AV-9 emissions_L4-AV-9 ssm_L4-AV-9 toc_L4-AV-9 driverstateL4-AV-9" vType="L4-AV-10" speedFactor="0.96" vaporized="">
        <emissions CO_abs="2452.522798" CO2_abs="233307.046051" HC_abs="14.193381" PMx_abs="2.953961" NOx_abs="83.823582" fuel_abs="100.289510" electricity_abs="0"/>
    </tripinfo>
    <tripinfo id="L2-AV-6" depart="173.70" departLane="top-approaching_0" departPos="5.10" departSpeed="0.00" departDelay="3.30" arrival="243.40" arrivalLane="bottom-exit_0" arrivalPos="486.40" arrivalSpeed="17.53" duration="69.70" routeLength="994.90" waitingTime="0.00" waitingCount="0" stopTime="0.00" timeLoss="12.82" rerouteNo="0" devices="tripinfo_L2-AV-6 emissions_L2-AV-6 ssm_L2-AV-6 toc_L2-AV-6 driverstateL2-AV-6" vType="L2-AV-59" speedFactor="1.05" vaporized="">
        <emissions CO_abs="2113.180416" CO2_abs="188038.578464" HC_abs="12.947476" PMx_abs="2.760496" NOx_abs="70.369103" fuel_abs="80.830034" electricity_abs="0"/>
    </tripinfo>
    <tripinfo id="L4-AV-8" depart="153.60" departLane="bottom-approaching_0" departPos="5.10" departSpeed="0.00" departDelay="0.00" arrival="244.70" arrivalLane="top-exit_0" arrivalPos="486.40" arrivalSpeed="15.01" duration="91.10" routeLength="994.90" waitingTime="0.00" waitingCount="0" stopTime="0.00" timeLoss="24.74" rerouteNo="0" devices="tripinfo_L4-AV-8 emissions_L4-AV-8 ssm_L4-AV-8 toc_L4-AV-8 driverstateL4-AV-8" vType="L4-AV-57" speedFactor="0.90" vaporized="">
        <emissions CO_abs="2551.612563" CO2_abs="235909.874347" HC_abs="14.787929" PMx_abs="2.818633" NOx_abs="84.178357" fuel_abs="101.408658" electricity_abs="0"/>
    </tripinfo>
    <tripinfo id="L4-CV-4" depart="170.20" departLane="top-approaching_0" departPos="5.10" departSpeed="0.00" departDelay="2.20" arrival="248.20" arrivalLane="right-exit_0" arrivalPos="486.40" arrivalSpeed="16.52" duration="78.00" routeLength="992.21" waitingTime="2.50" waitingCount="1" stopTime="0.00" timeLoss="16.91" rerouteNo="0" devices="tripinfo_L4-CV-4 emissions_L4-CV-4 ssm_L4-CV-4 toc_L4-CV-4 driverstateL4-CV-4" vType="L4-CV-12" speedFactor="0.99" vaporized="">
        <emissions CO_abs="3068.231542" CO2_abs="253509.523778" HC_abs="17.341155" PMx_abs="3.423162" NOx_abs="92.159297" fuel_abs="108.973813" electricity_abs="0"/>
    </tripinfo>
    <tripinfo id="L2-AV-8" depart="190.50" departLane="bottom-approaching_0" departPos="5.10" departSpeed="0.00" departDelay="3.30" arrival="254.70" arrivalLane="top-exit_0" arrivalPos="486.40" arrivalSpeed="17.16" duration="64.20" routeLength="994.90" waitingTime="0.00" waitingCount="0" stopTime="0.00" timeLoss="6.17" rerouteNo="0" devices="tripinfo_L2-AV-8 emissions_L2-AV-8 ssm_L2-AV-8 toc_L2-AV-8 driverstateL2-AV-8" vType="L2-AV-19" speedFactor="1.03" vaporized="">
        <emissions CO_abs="1108.104832" CO2_abs="204835.888089" HC_abs="6.894570" PMx_abs="2.198046" NOx_abs="68.487067" fuel_abs="88.050698" electricity_abs="0"/>
    </tripinfo>
    <tripinfo id="L4-CV-5" depart="180.00" departLane="top-approaching_0" departPos="5.10" departSpeed="0.00" departDelay="0.00" arrival="255.30" arrivalLane="bottom-exit_0" arrivalPos="486.40" arrivalSpeed="14.64" duration="75.30" routeLength="994.90" waitingTime="0.00" waitingCount="0" stopTime="0.00" timeLoss="7.22" rerouteNo="0" devices="tripinfo_L4-CV-5 emissions_L4-CV-5 ssm_L4-CV-5 toc_L4-CV-5 driverstateL4-CV-5" vType="L4-CV-22" speedFactor="0.88" vaporized="">
        <emissions CO_abs="1340.081527" CO2_abs="206720.096103" HC_abs="8.498336" PMx_abs="1.870981" NOx_abs="68.753342" fuel_abs="88.861294" electricity_abs="0"/>
    </tripinfo>
    <tripinfo id="L4-AV-18" depart="195.60" departLane="top-approaching_0" departPos="5.10" departSpeed="0.00" departDelay="0.00" arrival="264.30" arrivalLane="right-exit_0" arrivalPos="486.40" arrivalSpeed="16.95" duration="68.70" routeLength="992.21" waitingTime="0.00" waitingCount="0" stopTime="0.00" timeLoss="9.18" rerouteNo="0" devices="tripinfo_L4-AV-18 emissions_L4-AV-18 ssm_L4-AV-18 toc_L4-AV-18 driverstateL4-AV-18" vType="L4-AV-59" speedFactor="1.02" vaporized="">
        <emissions CO_abs="1916.596467" CO2_abs="223570.497442" HC_abs="11.660232" PMx_abs="2.810320" NOx_abs="79.056842" fuel_abs="96.103924" electricity_abs="0"/>
    </tripinfo>
    <tripinfo id="L0-HDV-10" depart="206.60" departLane="top-approaching_0" departPos="5.10" departSpeed="0.00" departDelay="2.60" arrival="264.60" arrivalLane="right-exit_1" arrivalPos="486.40" arrivalSpeed="19.87" duration="58.00" routeLength="992.21" waitingTime="0.00" waitingCount="0" stopTime="0.00" timeLoss="7.49" rerouteNo="0" devices="tripinfo_L0-HDV-10 emissions_L0-HDV-10 ssm_L0-HDV-10" vType="L0-HDV-22" speedFactor="1.20" vaporized="">
        <emissions CO_abs="3412.016972" CO2_abs="261946.487452" HC_abs="21.814865" PMx_abs="5.120237" NOx_abs="106.926469" fuel_abs="112.598651" electricity_abs="0"/>
    </tripinfo>
    <tripinfo id="L2-CV-14" depart="178.80" departLane="left-long-approaching_0" departPos="5.10" departSpeed="0.00" departDelay="0.00" arrival="283.10" arrivalLane="bottom-exit_0" arrivalPos="486.40" arrivalSpeed="17.75" duration="104.30" routeLength="1379.53" waitingTime="12.90" waitingCount="1" stopTime="0.00" timeLoss="25.69" rerouteNo="0" devices="tripinfo_L2-CV-14 emissions_L2-CV-14 ssm_L2-CV-14 toc_L2-CV-14 driverstateL2-CV-14" vType="L2-CV-Right-73" speedFactor="1.06" vaporized="">
        <emissions CO_abs="4585.938860" CO2_abs="340274.098727" HC_abs="25.147623" PMx_abs="4.854543" NOx_abs="123.147262" fuel_abs="146.270687" electricity_abs="0"/>
    </tripinfo>
    <tripinfo id="L4-AV-7" depart="149.40" departLane="left-long-approaching_0" departPos="5.10" departSpeed="0.00" departDelay="0.00" arrival="283.80" arrivalLane="right-exit_0" arrivalPos="486.40" arrivalSpeed="19.66" duration="134.40" routeLength="1395.23" waitingTime="45.90" waitingCount="1" stopTime="0.00" timeLoss="63.37" rerouteNo="0" devices="tripinfo_L4-AV-7 emissions_L4-AV-7 ssm_L4-AV-7 toc_L4-AV-7 driverstateL4-AV-7" vType="L4-AV-42" speedFactor="1.18" vaporized="">
        <emissions CO_abs="10696.258202" CO2_abs="456542.642623" HC_abs="56.839013" PMx_abs="7.993915" NOx_abs="176.304767" fuel_abs="196.251942" electricity_abs="0"/>
    </tripinfo>
    <tripinfo id="L4-AV-3" depart="132.60" departLane="right-approaching_0" departPos="5.10" departSpeed="0.00" departDelay="0.00" arrival="289.70" arrivalLane="top-exit_0" arrivalPos="486.40" arrivalSpeed="16.76" duration="157.10" routeLength="979.43" waitingTime="75.50" waitingCount="2" stopTime="0.00" timeLoss="97.67" rerouteNo="0" devices="tripinfo_L4-AV-3 emissions_L4-AV-3 ssm_L4-AV-3 toc_L4-AV-3 driverstateL4-AV-3" vType="L4-AV-38" speedFactor="1.01" vaporized="">
        <emissions CO_abs="15809.254710" CO2_abs="454231.849947" HC_abs="80.455330" PMx_abs="8.487948" NOx_abs="185.030260" fuel_abs="195.261666" electricity_abs="0"/>
    </tripinfo>
    <tripinfo id="L2-CV-16" depart="187.20" departLane="left-long-approaching_0" departPos="5.10" departSpeed="0.00" departDelay="0.00" arrival="291.20" arrivalLane="top-exit_1" arrivalPos="486.40" arrivalSpeed="18.31" duration="104.00" routeLength="1397.47" waitingTime="1.40" waitingCount="1" stopTime="0.00" timeLoss="26.82" rerouteNo="0" devices="tripinfo_L2-CV-16 emissions_L2-CV-16 ssm_L2-CV-16 toc_L2-CV-16 driverstateL2-CV-16" vType="L2-CV-Left-52@L2-CV-16" speedFactor="1.10" vaporized="">
        <emissions CO_abs="3485.367584" CO2_abs="335286.267552" HC_abs="20.636407" PMx_abs="4.662226" NOx_abs="120.485593" fuel_abs="144.126025" electricity_abs="0"/>
    </tripinfo>
    <tripinfo id="L4-CV-2" depart="144.00" departLane="right-approaching_0" departPos="5.10" departSpeed="0.00" departDelay="0.00" arrival="291.90" arrivalLane="top-exit_0" arrivalPos="486.40" arrivalSpeed="16.26" duration="147.90" routeLength="979.43" waitingTime="62.60" waitingCount="2" stopTime="0.00" timeLoss="86.81" rerouteNo="0" devices="tripinfo_L4-CV-2 emissions_L4-CV-2 ssm_L4-CV-2 toc_L4-CV-2 driverstateL4-CV-2" vType="L4-CV-89" speedFactor="0.98" vaporized="">
        <emissions CO_abs="12058.556130" CO2_abs="395595.021656" HC_abs="61.984273" PMx_abs="6.929538" NOx_abs="157.548797" fuel_abs="170.054583" electricity_abs="0"/>
    </tripinfo>
    <tripinfo id="L2-CV-11" depart="166.20" departLane="left-long-approaching_0" departPos="5.10" departSpeed="0.00" departDelay="0.00" arrival="292.00" arrivalLane="right-exit_0" arrivalPos="486.40" arrivalSpeed="14.90" duration="125.80" routeLength="1395.23" waitingTime="12.30" waitingCount="14" stopTime="0.00" timeLoss="32.10" rerouteNo="0" devices="tripinfo_L2-CV-11 emissions_L2-CV-11 ssm_L2-CV-11 toc_L2-CV-11 driverstateL2-CV-11" vType="L2-CV-15@L2-CV-11" speedFactor="0.89" vaporized="">
        <emissions CO_abs="3787.205117" CO2_abs="325424.489099" HC_abs="21.301442" PMx_abs="3.691775" NOx_abs="114.083889" fuel_abs="139.888133" electricity_abs="0"/>
    </tripinfo>
    <tripinfo id="L2-CV-15" depart="183.00" departLane="left-long-approaching_0" departPos="5.10" departSpeed="0.00" departDelay="0.00" arrival="292.30" arrivalLane="bottom-exit_0" arrivalPos="486.40" arrivalSpeed="15.47" duration="109.30" routeLength="1379.53" waitingTime="0.90" waitingCount="9" stopTime="0.00" timeLoss="19.07" rerouteNo="0" devices="tripinfo_L2-CV-15 emissions_L2-CV-15 ssm_L2-CV-15 toc_L2-CV-15 driverstateL2-CV-15" vType="L2-CV-Right-57" speedFactor="0.93" vaporized="">
        <emissions CO_abs="3209.573380" CO2_abs="319635.594668" HC_abs="18.575662" PMx_abs="3.638621" NOx_abs="111.488258" fuel_abs="137.399300" electricity_abs="0"/>
    </tripinfo>
    <tripinfo id="L2-AV-7" depart="181.60" departLane="left-long-approaching_0" departPos="5.10" departSpeed="0.00" departDelay="2.80" arrival="295.30" arrivalLane="right-exit_0" arrivalPos="486.40" arrivalSpeed="15.24" duration="113.70" routeLength="1395.23" waitingTime="0.00" waitingCount="0" stopTime="0.00" timeLoss="22.06" rerouteNo="0" devices="tripinfo_L2-AV-7 emissions_L2-AV-7 ssm_L2-AV-7 toc_L2-AV-7 driverstateL2-AV-7" vType="L2-AV-86" speedFactor="0.91" vaporized="">
        <emissions CO_abs="3021.972235" CO2_abs="317497.804413" HC_abs="17.541369" PMx_abs="3.632713" NOx_abs="111.357485" fuel_abs="136.480093" electricity_abs="0"/>
    </tripinfo>
    <tripinfo id="L2-CV-9" depart="157.80" departLane="right-approaching_0" departPos="5.10" departSpeed="0.00" departDelay="0.00" arrival="297.10" arrivalLane="top-exit_1" arrivalPos="486.40" arrivalSpeed="17.75" duration="139.30" routeLength="979.43" waitingTime="2.10" waitingCount="1" stopTime="0.00" timeLoss="83.20" rerouteNo="0" devices="tripinfo_L2-CV-9 emissions_L2-CV-9 ssm_L2-CV-9 toc_L2-CV-9 driverstateL2-CV-9" vType="L2-CV-47" speedFactor="1.07" vaporized="">
        <emissions CO_abs="4004.223379" CO2_abs="261085.230886" HC_abs="23.142629" PMx_abs="4.122846" NOx_abs="99.750515" fuel_abs="112.230285" electricity_abs="0"/>
    </tripinfo>
    <tripinfo id="L2-AV-3" depart="150.40" departLane="right-approaching_0" departPos="5.10" departSpeed="0.00" departDelay="5.20" arrival="298.30" arrivalLane="top-exit_0" arrivalPos="486.40" arrivalSpeed="14.65" duration="147.90" routeLength="979.43" waitingTime="3.50" waitingCount="2" stopTime="0.00" timeLoss="79.87" rerouteNo="0" devices="tripinfo_L2-AV-3 emissions_L2-AV-3 ssm_L2-AV-3 toc_L2-AV-3 driverstateL2-AV-3" vType="L2-AV-42" speedFactor="0.88" vaporized="">
        <emissions CO_abs="3292.000536" CO2_abs="240770.997456" HC_abs="18.482338" PMx_abs="3.081846" NOx_abs="87.708810" fuel_abs="103.498542" electricity_abs="0"/>
    </tripinfo>
    <tripinfo id="L2-CV-10" depart="162.00" departLane="right-approaching_0" departPos="5.10" departSpeed="0.00" departDelay="0.00" arrival="300.10" arrivalLane="top-exit_0" arrivalPos="486.40" arrivalSpeed="16.14" duration="138.10" routeLength="979.43" waitingTime="10.90" waitingCount="109" stopTime="0.00" timeLoss="76.38" rerouteNo="0" devices="tripinfo_L2-CV-10 emissions_L2-CV-10 ssm_L2-CV-10 toc_L2-CV-10 driverstateL2-CV-10" vType="L2-CV-38" speedFactor="0.97" vaporized="">
        <emissions CO_abs="9615.298995" CO2_abs="352152.842295" HC_abs="50.386491" PMx_abs="6.216482" NOx_abs="141.157458" fuel_abs="151.379035" electricity_abs="0"/>
    </tripinfo>
    <tripinfo id="L2-CV-23" depart="216.60" departLane="right-approaching_0" departPos="5.10" departSpeed="0.00" departDelay="0.00" arrival="301.40" arrivalLane="top-exit_0" arrivalPos="486.40" arrivalSpeed="17.19" duration="84.80" routeLength="979.43" waitingTime="0.70" waitingCount="7" stopTime="0.00" timeLoss="26.83" rerouteNo="0" devices="tripinfo_L2-CV-23 emissions_L2-CV-23 ssm_L2-CV-23 toc_L2-CV-23 driverstateL2-CV-23" vType="L2-CV-70" speedFactor="1.03" vaporized="">
        <emissions CO_abs="4042.070308" CO2_abs="245185.299984" HC_abs="23.128920" PMx_abs="3.921860" NOx_abs="94.612779" fuel_abs="105.395653" electricity_abs="0"/>
    </tripinfo>
    <tripinfo id="L4-AV-17" depart="191.40" departLane="left-long-approaching_0" departPos="5.10" departSpeed="0.00" departDelay="0.00" arrival="301.80" arrivalLane="bottom-exit_0" arrivalPos="486.40" arrivalSpeed="14.25" duration="110.40" routeLength="1379.53" waitingTime="0.00" waitingCount="0" stopTime="0.00" timeLoss="12.43" rerouteNo="0" devices="tripinfo_L4-AV-17 emissions_L4-AV-17 ssm_L4-AV-17 toc_L4-AV-17 driverstateL4-AV-17" vType="L4-AV-Right-58" speedFactor="0.85" vaporized="">
        <emissions CO_abs="2426.353725" CO2_abs="306643.546458" HC_abs="15.275260" PMx_abs="3.181451" NOx_abs="106.168448" fuel_abs="131.814387" electricity_abs="0"/>
    </tripinfo>
    <tripinfo id="L4-CV-6" depart="194.50" departLane="left-long-approaching_0" departPos="5.10" departSpeed="0.00" departDelay="2.50" arrival="303.50" arrivalLane="bottom-exit_0" arrivalPos="486.40" arrivalSpeed="15.61" duration="109.00" routeLength="1379.53" waitingTime="0.10" waitingCount="1" stopTime="0.00" timeLoss="19.56" rerouteNo="0" devices="tripinfo_L4-CV-6 emissions_L4-CV-6 ssm_L4-CV-6 toc_L4-CV-6 driverstateL4-CV-6" vType="L4-CV-Right-81" speedFactor="0.94" vaporized="">
        <emissions CO_abs="2810.285295" CO2_abs="285044.035010" HC_abs="17.085974" PMx_abs="3.420427" NOx_abs="101.663150" fuel_abs="122.529403" electricity_abs="0"/>
    </tripinfo>
    <tripinfo id="L2-CV-7" depart="153.30" departLane="right-approaching_0" departPos="5.10" departSpeed="0.00" departDelay="3.90" arrival="304.70" arrivalLane="bottom-exit_1" arrivalPos="486.40" arrivalSpeed="18.70" duration="151.40" routeLength="992.21" waitingTime="69.60" waitingCount="3" stopTime="0.00" timeLoss="97.42" rerouteNo="0" devices="tripinfo_L2-CV-7 emissions_L2-CV-7 ssm_L2-CV-7 toc_L2-CV-7 driverstateL2-CV-7" vType="L2-CV-79" speedFactor="1.12" vaporized="">
        <emissions CO_abs="15661.702231" CO2_abs="468872.424319" HC_abs="80.614544" PMx_abs="8.997262" NOx_abs="191.700947" fuel_abs="201.554504" electricity_abs="0"/>
    </tripinfo>
    <tripinfo id="L0-HDV-3" depart="145.20" departLane="left-long-approaching_0" departPos="5.10" departSpeed="0.00" departDelay="0.00" arrival="305.00" arrivalLane="top-exit_0" arrivalPos="486.40" arrivalSpeed="12.91" duration="159.80" routeLength="1392.31" waitingTime="34.30" waitingCount="2" stopTime="0.00" timeLoss="51.00" rerouteNo="0" devices="tripinfo_L0-HDV-3 emissions_L0-HDV-3 ssm_L0-HDV-3" vType="L0-HDV-Left-74" speedFactor="0.78" vaporized="">
        <emissions CO_abs="9043.203444" CO2_abs="327154.608668" HC_abs="48.693936" PMx_abs="5.466786" NOx_abs="130.616965" fuel_abs="140.633798" electricity_abs="0"/>
    </tripinfo>
    <tripinfo id="L0-HDV-4" depart="153.60" departLane="left-long-approaching_0" departPos="5.10" departSpeed="0.00" departDelay="0.00" arrival="307.80" arrivalLane="top-exit_1" arrivalPos="486.40" arrivalSpeed="17.89" duration="154.20" routeLength="1392.31" waitingTime="33.10" waitingCount="4" stopTime="0.00" timeLoss="75.61" rerouteNo="0" devices="tripinfo_L0-HDV-4 emissions_L0-HDV-4 ssm_L0-HDV-4" vType="L0-HDV-Left-10" speedFactor="1.08" vaporized="">
        <emissions CO_abs="10240.404269" CO2_abs="379964.997207" HC_abs="55.195804" PMx_abs="6.775742" NOx_abs="153.001287" fuel_abs="163.334598" electricity_abs="0"/>
    </tripinfo>
    <tripinfo id="L4-AV-19" depart="199.80" departLane="right-approaching_0" departPos="5.10" departSpeed="0.00" departDelay="0.00" arrival="308.50" arrivalLane="bottom-exit_0" arrivalPos="486.40" arrivalSpeed="16.72" duration="108.70" routeLength="992.21" waitingTime="0.10" waitingCount="1" stopTime="0.00" timeLoss="48.37" rerouteNo="0" devices="tripinfo_L4-AV-19 emissions_L4-AV-19 ssm_L4-AV-19 toc_L4-AV-19 driverstateL4-AV-19" vType="L4-AV-64" speedFactor="1.00" vaporized="">
        <emissions CO_abs="3832.425956" CO2_abs="263652.416728" HC_abs="21.675303" PMx_abs="3.720703" NOx_abs="97.908809" fuel_abs="113.334181" electricity_abs="0"/>
    </tripinfo>
    <tripinfo id="L2-CV-29" depart="241.80" departLane="right-approaching_0" departPos="5.10" departSpeed="0.00" departDelay="0.00" arrival="310.50" arrivalLane="bottom-exit_1" arrivalPos="486.40" arrivalSpeed="18.64" duration="68.70" routeLength="992.21" waitingTime="0.00" waitingCount="0" stopTime="0.00" timeLoss="14.61" rerouteNo="0" devices="tripinfo_L2-CV-29 emissions_L2-CV-29 ssm_L2-CV-29 toc_L2-CV-29 driverstateL2-CV-29" vType="L2-CV-51" speedFactor="1.12" vaporized="">
        <emissions CO_abs="2476.270674" CO2_abs="248909.497805" HC_abs="15.835745" PMx_abs="3.727469" NOx_abs="92.188630" fuel_abs="106.995717" electricity_abs="0"/>
    </tripinfo>
    <tripinfo id="L2-CV-22" depart="212.40" departLane="right-approaching_0" departPos="5.10" departSpeed="0.00" departDelay="0.00" arrival="311.60" arrivalLane="bottom-exit_0" arrivalPos="486.40" arrivalSpeed="15.69" duration="99.20" routeLength="992.21" waitingTime="0.00" waitingCount="0" stopTime="0.00" timeLoss="34.96" rerouteNo="0" devices="tripinfo_L2-CV-22 emissions_L2-CV-22 ssm_L2-CV-22 toc_L2-CV-22 driverstateL2-CV-22" vType="L2-CV-85" speedFactor="0.94" vaporized="">
        <emissions CO_abs="3719.125656" CO2_abs="262906.428510" HC_abs="20.906136" PMx_abs="3.476582" NOx_abs="96.338296" fuel_abs="113.013723" electricity_abs="0"/>
    </tripinfo>
    <tripinfo id="L0-HDV-5" depart="162.00" departLane="left-long-approaching_0" departPos="5.10" departSpeed="0.00" departDelay="0.00" arrival="311.90" arrivalLane="top-exit_0" arrivalPos="486.40" arrivalSpeed="15.96" duration="149.90" routeLength="1392.31" waitingTime="25.50" waitingCount="3" stopTime="0.00" timeLoss="61.88" rerouteNo="0" devices="tripinfo_L0-HDV-5 emissions_L0-HDV-5 ssm_L0-HDV-5" vType="L0-HDV-Left-23" speedFactor="0.96" vaporized="">
        <emissions CO_abs="9552.641053" CO2_abs="382246.217161" HC_abs="52.276848" PMx_abs="6.979278" NOx_abs="155.568906" fuel_abs="164.314291" electricity_abs="0"/>
    </tripinfo>
    <tripinfo id="L2-CV-30" depart="246.00" departLane="right-approaching_0" departPos="5.10" departSpeed="0.00" departDelay="0.00" arrival="314.80" arrivalLane="bottom-exit_0" arrivalPos="486.40" arrivalSpeed="16.81" duration="68.80" routeLength="992.21" waitingTime="0.00" waitingCount="0" stopTime="0.00" timeLoss="8.81" rerouteNo="0" devices="tripinfo_L2-CV-30 emissions_L2-CV-30 ssm_L2-CV-30 toc_L2-CV-30 driverstateL2-CV-30" vType="L2-CV-97" speedFactor="1.01" vaporized="">
        <emissions CO_abs="1794.816602" CO2_abs="228492.932835" HC_abs="11.320329" PMx_abs="2.799622" NOx_abs="80.226816" fuel_abs="98.219896" electricity_abs="0"/>
    </tripinfo>
    <tripinfo id="L4-AV-1" depart="124.20" departLane="top-approaching_0" departPos="5.10" departSpeed="0.00" departDelay="0.00" arrival="318.50" arrivalLane="left-exit_0" arrivalPos="820.00" arrivalSpeed="19.65" duration="194.30" routeLength="1379.53" waitingTime="60.50" waitingCount="2" stopTime="0.00" timeLoss="123.22" rerouteNo="0" devices="tripinfo_L4-AV-1 emissions_L4-AV-1 ssm_L4-AV-1 toc_L4-AV-1 driverstateL4-AV-1" vType="L4-AV-21@L4-AV-1" speedFactor="1.18" vaporized="">
        <emissions CO_abs="9868.862200" CO2_abs="429454.488786" HC_abs="52.338200" PMx_abs="7.601083" NOx_abs="165.947006" fuel_abs="184.607381" electricity_abs="0"/>
    </tripinfo>
    <tripinfo id="L2-CV-33" depart="261.60" departLane="right-approaching_0" departPos="5.10" departSpeed="0.00" departDelay="3.00" arrival="319.70" arrivalLane="bottom-exit_1" arrivalPos="486.40" arrivalSpeed="20.44" duration="58.10" routeLength="992.21" waitingTime="0.00" waitingCount="0" stopTime="0.00" timeLoss="8.69" rerouteNo="0" devices="tripinfo_L2-CV-33 emissions_L2-CV-33 ssm_L2-CV-33 toc_L2-CV-33 driverstateL2-CV-33" vType="L2-CV-99" speedFactor="1.23" vaporized="">
        <emissions CO_abs="2119.260926" CO2_abs="249860.688960" HC_abs="14.744244" PMx_abs="3.928883" NOx_abs="91.533556" fuel_abs="107.404308" electricity_abs="0"/>
    </tripinfo>
    <tripinfo id="L4-CV-9" depart="229.10" departLane="left-long-approaching_0" departPos="5.10" departSpeed="0.00" departDelay="1.10" arrival="320.80" arrivalLane="top-exit_0" arrivalPos="486.40" arrivalSpeed="16.97" duration="91.70" routeLength="1392.31" waitingTime="0.00" waitingCount="0" stopTime="0.00" timeLoss="8.68" rerouteNo="0" devices="tripinfo_L4-CV-9 emissions_L4-CV-9 ssm_L4-CV-9 toc_L4-CV-9 driverstateL4-CV-9" vType="L4-CV-Left-59" speedFactor="1.02" vaporized="">
        <emissions CO_abs="1884.350875" CO2_abs="294902.955001" HC_abs="11.692872" PMx_abs="3.357228" NOx_abs="100.478459" fuel_abs="126.766870" electricity_abs="0"/>
    </tripinfo>