<?xml version="1.0" encoding="UTF-8"?>

<!-- generated on 04/08/21 12:36:35 by Eclipse SUMO sumo Version 1.8.0
<configuration xmlns:xsi="http://www.w3.org/2001/XMLSchema-instance" xsi:noNamespaceSchemaLocation="http://sumo.dlr.de/xsd/sumoConfiguration.xsd">

    <input>
        <net-file value="Collision\RealTMSPenetration3\../CollisionIntersection.net.xml"/>
        <route-files value="Collision\RealTMSPenetration3\../CrashedVehicleRoutes.rou.xml,Collision\RealTMSPenetration3\Route-Files/L4-CV-Route.rou.xml,Collision\RealTMSPenetration3\Route-Files/L4-AV-Route.rou.xml,Collision\RealTMSPenetration3\Route-Files/L2-CV-Route.rou.xml,Collision\RealTMSPenetration3\Route-Files/L2-AV-Route.rou.xml,Collision\RealTMSPenetration3\Route-Files/L0-HDV-Route.rou.xml"/>
        <additional-files value="Collision\RealTMSPenetration3\../Additional-Files/Collision-Detectors.add.xml,Collision\RealTMSPenetration3\../Additional-Files/Collision-TMS-Rerouters.add.xml,Collision\RealTMSPenetration3\PreparingVehicleModels/Vehicle-Models/L4-CV.add.xml,Collision\RealTMSPenetration3\PreparingVehicleModels/Vehicle-Models/L4-CV-Left.add.xml,Collision\RealTMSPenetration3\PreparingVehicleModels/Vehicle-Models/L4-CV-Right.add.xml,Collision\RealTMSPenetration3\PreparingVehicleModels/Vehicle-Models/L4-AV.add.xml,Collision\RealTMSPenetration3\PreparingVehicleModels/Vehicle-Models/L4-AV-Left.add.xml,Collision\RealTMSPenetration3\PreparingVehicleModels/Vehicle-Models/L4-AV-Right.add.xml,Collision\RealTMSPenetration3\PreparingVehicleModels/Vehicle-Models/L2-CV.add.xml,Collision\RealTMSPenetration3\PreparingVehicleModels/Vehicle-Models/L2-CV-Left.add.xml,Collision\RealTMSPenetration3\PreparingVehicleModels/Vehicle-Models/L2-CV-Right.add.xml,Collision\RealTMSPenetration3\PreparingVehicleModels/Vehicle-Models/L2-AV.add.xml,Collision\RealTMSPenetration3\PreparingVehicleModels/Vehicle-Models/L2-AV-Left.add.xml,Collision\RealTMSPenetration3\PreparingVehicleModels/Vehicle-Models/L2-AV-Right.add.xml,Collision\RealTMSPenetration3\PreparingVehicleModels/Vehicle-Models/L0-HDV.add.xml,Collision\RealTMSPenetration3\PreparingVehicleModels/Vehicle-Models/L0-HDV-Left.add.xml,Collision\RealTMSPenetration3\PreparingVehicleModels/Vehicle-Models/L0-HDV-Straight.add.xml,Collision\RealTMSPenetration3\../Additional-Files/Collision-Traffic-lights.add.xml,Collision\RealTMSPenetration3\../Additional-Files/Collision-Traffic-Signs.add.xml"/>
    </input>

    <output>
        <tripinfo-output value="Collision\RealTMSPenetration3\Output-Files\TripInfo.xml"/>
    </output>

    <time>
        <begin value="0"/>
        <step-length value="0.1"/>
    </time>

    <processing>
        <ignore-route-errors value="true"/>
        <waiting-time-memory value="300"/>
        <default.action-step-length value="0.1"/>
    </processing>

    <report>
        <no-warnings value="true"/>
    </report>

    <emissions>
        <device.emissions.probability value="1"/>
    </emissions>

    <traci_server>
        <remote-port value="59960"/>
    </traci_server>

    <gui_only>
        <quit-on-end value="true"/>
        <start value="true"/>
        <tracker-interval value="0.1"/>
    </gui_only>

</configuration>
-->

<tripinfos xmlns:xsi="http://www.w3.org/2001/XMLSchema-instance" xsi:noNamespaceSchemaLocation="http://sumo.dlr.de/xsd/tripinfo_file.xsd">
    <tripinfo id="L0-HDV-0" depart="120.00" departLane="left-long-approaching_0" departPos="5.10" departSpeed="0.00" departDelay="0.00" arrival="186.80" arrivalLane="bottom-exit_0" arrivalPos="486.40" arrivalSpeed="17.20" duration="66.80" routeLength="979.53" waitingTime="0.00" waitingCount="0" stopTime="0.00" timeLoss="9.38" rerouteNo="0" devices="tripinfo_L0-HDV-0 emissions_L0-HDV-0 ssm_L0-HDV-0" vType="L0-HDV-32" speedFactor="1.04" vaporized="">
        <emissions CO_abs="2941.707685" CO2_abs="228576.125232" HC_abs="18.721064" PMx_abs="4.090118" NOx_abs="91.639499" fuel_abs="98.254732" electricity_abs="0"/>
    </tripinfo>
    <tripinfo id="L2-CV-2" depart="127.00" departLane="right-approaching_0" departPos="5.10" departSpeed="0.00" departDelay="0.00" arrival="193.10" arrivalLane="left-exit_1" arrivalPos="410.00" arrivalSpeed="20.01" duration="66.10" routeLength="995.12" waitingTime="0.00" waitingCount="0" stopTime="0.00" timeLoss="16.27" rerouteNo="0" devices="tripinfo_L2-CV-2 emissions_L2-CV-2 ssm_L2-CV-2 toc_L2-CV-2 driverstateL2-CV-2" vType="L2-CV-0@L2-CV-2" speedFactor="1.20" vaporized="">
        <emissions CO_abs="2931.574459" CO2_abs="276826.482485" HC_abs="18.765817" PMx_abs="4.336833" NOx_abs="103.118514" fuel_abs="118.996039" electricity_abs="0"/>
    </tripinfo>
    <tripinfo id="L4-AV-1" depart="127.00" departLane="left-long-approaching_0" departPos="5.10" departSpeed="0.00" departDelay="0.00" arrival="198.30" arrivalLane="right-exit_0" arrivalPos="486.40" arrivalSpeed="15.01" duration="71.30" routeLength="995.23" waitingTime="0.00" waitingCount="0" stopTime="0.00" timeLoss="4.95" rerouteNo="0" devices="tripinfo_L4-AV-1 emissions_L4-AV-1 ssm_L4-AV-1 toc_L4-AV-1 driverstateL4-AV-1" vType="L4-AV-4" speedFactor="0.90" vaporized="">
        <emissions CO_abs="1157.761154" CO2_abs="201996.920617" HC_abs="7.024467" PMx_abs="1.848588" NOx_abs="66.740137" fuel_abs="86.830761" electricity_abs="0"/>
    </tripinfo>
    <tripinfo id="L0-HDV-1" depart="131.00" departLane="right-approaching_0" departPos="5.10" departSpeed="0.00" departDelay="0.00" arrival="198.80" arrivalLane="bottom-exit_1" arrivalPos="486.40" arrivalSpeed="18.68" duration="67.80" routeLength="992.21" waitingTime="1.80" waitingCount="1" stopTime="0.00" timeLoss="13.74" rerouteNo="0" devices="tripinfo_L0-HDV-1 emissions_L0-HDV-1 ssm_L0-HDV-1" vType="L0-HDV-82" speedFactor="1.12" vaporized="">
        <emissions CO_abs="3011.369478" CO2_abs="213850.108156" HC_abs="18.269633" PMx_abs="3.772158" NOx_abs="84.283609" fuel_abs="91.925011" electricity_abs="0"/>
    </tripinfo>
    <tripinfo id="L2-CV-6" depart="141.00" departLane="left-long-approaching_0" departPos="5.10" departSpeed="0.00" departDelay="0.00" arrival="207.80" arrivalLane="top-exit_0" arrivalPos="486.40" arrivalSpeed="17.62" duration="66.80" routeLength="997.47" waitingTime="0.00" waitingCount="0" stopTime="0.00" timeLoss="9.31" rerouteNo="0" devices="tripinfo_L2-CV-6 emissions_L2-CV-6 ssm_L2-CV-6 toc_L2-CV-6 driverstateL2-CV-6" vType="L2-CV-Left-30@L2-CV-6" speedFactor="1.06" vaporized="">
        <emissions CO_abs="2264.119377" CO2_abs="246900.435228" HC_abs="13.374668" PMx_abs="3.363498" NOx_abs="88.682353" fuel_abs="106.132248" electricity_abs="0"/>
    </tripinfo>
    <tripinfo id="L4-AV-2" depart="134.00" departLane="right-approaching_0" departPos="5.10" departSpeed="0.00" departDelay="0.00" arrival="212.50" arrivalLane="bottom-exit_0" arrivalPos="486.40" arrivalSpeed="14.62" duration="78.50" routeLength="992.21" waitingTime="0.00" waitingCount="0" stopTime="0.00" timeLoss="9.49" rerouteNo="0" devices="tripinfo_L4-AV-2 emissions_L4-AV-2 ssm_L4-AV-2 toc_L4-AV-2 driverstateL4-AV-2" vType="L4-AV-84" speedFactor="0.88" vaporized="">
        <emissions CO_abs="2155.040164" CO2_abs="236949.306346" HC_abs="13.159470" PMx_abs="2.758250" NOx_abs="84.241654" fuel_abs="101.855247" electricity_abs="0"/>
    </tripinfo>
    <tripinfo id="L4-CV-0" depart="120.00" departLane="bottom-approaching_0" departPos="5.10" departSpeed="0.00" departDelay="0.00" arrival="237.20" arrivalLane="top-exit_0" arrivalPos="486.40" arrivalSpeed="16.26" duration="117.20" routeLength="994.90" waitingTime="44.40" waitingCount="1" stopTime="0.00" timeLoss="55.92" rerouteNo="0" devices="tripinfo_L4-CV-0 emissions_L4-CV-0 ssm_L4-CV-0 toc_L4-CV-0 driverstateL4-CV-0" vType="L4-CV-89" speedFactor="0.98" vaporized="">
        <emissions CO_abs="9643.159924" CO2_abs="355980.576878" HC_abs="49.302279" PMx_abs="6.011145" NOx_abs="139.097117" fuel_abs="153.024756" electricity_abs="0"/>
    </tripinfo>
    <tripinfo id="L2-AV-3" depart="134.00" departLane="top-approaching_0" departPos="5.10" departSpeed="0.00" departDelay="3.50" arrival="238.20" arrivalLane="bottom-exit_0" arrivalPos="486.40" arrivalSpeed="15.67" duration="104.20" routeLength="994.90" waitingTime="29.90" waitingCount="1" stopTime="0.00" timeLoss="40.63" rerouteNo="0" devices="tripinfo_L2-AV-3 emissions_L2-AV-3 ssm_L2-AV-3 toc_L2-AV-3 driverstateL2-AV-3" vType="L2-AV-84" speedFactor="0.94" vaporized="">
        <emissions CO_abs="7106.113326" CO2_abs="314481.700046" HC_abs="36.899481" PMx_abs="4.863980" NOx_abs="119.741185" fuel_abs="135.185171" electricity_abs="0"/>
    </tripinfo>
    <tripinfo id="L2-AV-0" depart="126.20" departLane="bottom-approaching_0" departPos="5.10" departSpeed="0.00" departDelay="6.20" arrival="239.60" arrivalLane="top-exit_0" arrivalPos="486.40" arrivalSpeed="16.59" duration="113.40" routeLength="994.90" waitingTime="0.00" waitingCount="0" stopTime="0.00" timeLoss="53.30" rerouteNo="0" devices="tripinfo_L2-AV-0 emissions_L2-AV-0 ssm_L2-AV-0 toc_L2-AV-0 driverstateL2-AV-0" vType="L2-AV-56" speedFactor="1.00" vaporized="">
        <emissions CO_abs="2747.991245" CO2_abs="235835.829899" HC_abs="15.598314" PMx_abs="3.225666" NOx_abs="86.087773" fuel_abs="101.376409" electricity_abs="0"/>
    </tripinfo>
    <tripinfo id="L4-CV-6" depart="165.60" departLane="top-approaching_0" departPos="5.10" departSpeed="0.00" departDelay="3.60" arrival="240.10" arrivalLane="bottom-exit_0" arrivalPos="486.40" arrivalSpeed="15.61" duration="74.50" routeLength="994.90" waitingTime="0.00" waitingCount="0" stopTime="0.00" timeLoss="10.65" rerouteNo="0" devices="tripinfo_L4-CV-6 emissions_L4-CV-6 ssm_L4-CV-6 toc_L4-CV-6 driverstateL4-CV-6" vType="L4-CV-81" speedFactor="0.94" vaporized="">
        <emissions CO_abs="2028.080124" CO2_abs="233353.027128" HC_abs="12.258276" PMx_abs="2.777678" NOx_abs="82.422320" fuel_abs="100.309214" electricity_abs="0"/>
    </tripinfo>
    <tripinfo id="L2-AV-6" depart="144.70" departLane="bottom-approaching_0" departPos="5.10" departSpeed="0.00" departDelay="3.70" arrival="240.30" arrivalLane="top-exit_1" arrivalPos="486.40" arrivalSpeed="19.04" duration="95.60" routeLength="994.90" waitingTime="0.00" waitingCount="0" stopTime="0.00" timeLoss="43.28" rerouteNo="0" devices="tripinfo_L2-AV-6 emissions_L2-AV-6 ssm_L2-AV-6 toc_L2-AV-6 driverstateL2-AV-6" vType="L2-AV-57" speedFactor="1.14" vaporized="">
        <emissions CO_abs="2946.373458" CO2_abs="218026.108221" HC_abs="17.315092" PMx_abs="3.461569" NOx_abs="82.819473" fuel_abs="93.720511" electricity_abs="0"/>
    </tripinfo>
    <tripinfo id="L4-AV-0" depart="123.00" departLane="bottom-approaching_0" departPos="5.10" departSpeed="0.00" departDelay="3.00" arrival="241.30" arrivalLane="right-exit_0" arrivalPos="486.40" arrivalSpeed="13.99" duration="118.30" routeLength="979.43" waitingTime="36.50" waitingCount="1" stopTime="0.00" timeLoss="47.10" rerouteNo="0" devices="tripinfo_L4-AV-0 emissions_L4-AV-0 ssm_L4-AV-0 toc_L4-AV-0 driverstateL4-AV-0" vType="L4-AV-74" speedFactor="0.84" vaporized="">
        <emissions CO_abs="8136.885788" CO2_abs="324584.202878" HC_abs="42.772123" PMx_abs="4.909882" NOx_abs="124.368382" fuel_abs="139.528808" electricity_abs="0"/>
    </tripinfo>
    <tripinfo id="L2-AV-1" depart="126.30" departLane="bottom-approaching_0" departPos="5.10" departSpeed="0.00" departDelay="2.80" arrival="241.90" arrivalLane="right-exit_1" arrivalPos="486.40" arrivalSpeed="15.24" duration="115.60" routeLength="979.43" waitingTime="10.50" waitingCount="1" stopTime="0.00" timeLoss="50.22" rerouteNo="0" devices="tripinfo_L2-AV-1 emissions_L2-AV-1 ssm_L2-AV-1 toc_L2-AV-1 driverstateL2-AV-1" vType="L2-AV-86" speedFactor="0.91" vaporized="">
        <emissions CO_abs="2745.396728" CO2_abs="210518.686263" HC_abs="15.695422" PMx_abs="2.811689" NOx_abs="77.551834" fuel_abs="90.493911" electricity_abs="0"/>
    </tripinfo>
    <tripinfo id="L0-HDV-3" depart="153.00" departLane="bottom-approaching_0" departPos="5.10" departSpeed="0.00" departDelay="0.00" arrival="243.80" arrivalLane="right-exit_0" arrivalPos="486.40" arrivalSpeed="14.80" duration="90.80" routeLength="979.43" waitingTime="9.60" waitingCount="1" stopTime="0.00" timeLoss="24.52" rerouteNo="0" devices="tripinfo_L0-HDV-3 emissions_L0-HDV-3 ssm_L0-HDV-3" vType="L0-HDV-3" speedFactor="0.90" vaporized="">
        <emissions CO_abs="4635.961862" CO2_abs="262502.934764" HC_abs="27.241272" PMx_abs="4.849823" NOx_abs="107.750361" fuel_abs="112.839055" electricity_abs="0"/>
    </tripinfo>
    <tripinfo id="L2-AV-12" depart="162.00" departLane="bottom-approaching_0" departPos="5.10" departSpeed="0.00" departDelay="0.00" arrival="245.50" arrivalLane="right-exit_0" arrivalPos="486.40" arrivalSpeed="17.75" duration="83.50" routeLength="979.43" waitingTime="0.00" waitingCount="0" stopTime="0.00" timeLoss="27.40" rerouteNo="0" devices="tripinfo_L2-AV-12 emissions_L2-AV-12 ssm_L2-AV-12 toc_L2-AV-12 driverstateL2-AV-12" vType="L2-AV-3" speedFactor="1.06" vaporized="">
        <emissions CO_abs="2965.643774" CO2_abs="207810.468188" HC_abs="17.558752" PMx_abs="3.346843" NOx_abs="80.873266" fuel_abs="89.329185" electricity_abs="0"/>
    </tripinfo>
    <tripinfo id="L4-AV-3" depart="141.00" departLane="bottom-approaching_0" departPos="5.10" departSpeed="0.00" departDelay="0.00" arrival="246.60" arrivalLane="top-exit_0" arrivalPos="486.40" arrivalSpeed="14.25" duration="105.60" routeLength="994.90" waitingTime="0.00" waitingCount="0" stopTime="0.00" timeLoss="35.68" rerouteNo="0" devices="tripinfo_L4-AV-3 emissions_L4-AV-3 ssm_L4-AV-3 toc_L4-AV-3 driverstateL4-AV-3" vType="L4-AV-58" speedFactor="0.85" vaporized="">
        <emissions CO_abs="2543.435850" CO2_abs="226032.857311" HC_abs="15.036808" PMx_abs="2.634449" NOx_abs="80.774867" fuel_abs="97.163117" electricity_abs="0"/>
    </tripinfo>
    <tripinfo id="L4-CV-8" depart="176.00" departLane="bottom-approaching_0" departPos="5.10" departSpeed="0.00" departDelay="0.00" arrival="246.80" arrivalLane="top-exit_1" arrivalPos="486.40" arrivalSpeed="16.25" duration="70.80" routeLength="994.90" waitingTime="0.00" waitingCount="0" stopTime="0.00" timeLoss="9.50" rerouteNo="0" devices="tripinfo_L4-CV-8 emissions_L4-CV-8 ssm_L4-CV-8 toc_L4-CV-8 driverstateL4-CV-8" vType="L4-CV-30" speedFactor="0.98" vaporized="">
        <emissions CO_abs="1770.647428" CO2_abs="221613.107381" HC_abs="11.581040" PMx_abs="2.807237" NOx_abs="79.201797" fuel_abs="95.262428" electricity_abs="0"/>
    </tripinfo>
    <tripinfo id="L2-AV-19" depart="186.50" departLane="bottom-approaching_0" departPos="5.10" departSpeed="0.00" departDelay="0.00" arrival="253.80" arrivalLane="top-exit_0" arrivalPos="486.40" arrivalSpeed="16.20" duration="67.30" routeLength="994.90" waitingTime="0.00" waitingCount="0" stopTime="0.00" timeLoss="5.82" rerouteNo="0" devices="tripinfo_L2-AV-19 emissions_L2-AV-19 ssm_L2-AV-19 toc_L2-AV-19 driverstateL2-AV-19" vType="L2-AV-57" speedFactor="0.97" vaporized="">
        <emissions CO_abs="1252.385276" CO2_abs="204332.617199" HC_abs="7.293461" PMx_abs="2.087566" NOx_abs="68.091616" fuel_abs="87.834566" electricity_abs="0"/>
    </tripinfo>
    <tripinfo id="L2-CV-21" depart="193.50" departLane="top-approaching_0" departPos="5.10" departSpeed="0.00" departDelay="0.00" arrival="256.20" arrivalLane="bottom-exit_1" arrivalPos="486.40" arrivalSpeed="19.62" duration="62.70" routeLength="994.90" waitingTime="0.00" waitingCount="0" stopTime="0.00" timeLoss="11.90" rerouteNo="0" devices="tripinfo_L2-CV-21 emissions_L2-CV-21 ssm_L2-CV-21 toc_L2-CV-21 driverstateL2-CV-21" vType="L2-CV-30" speedFactor="1.18" vaporized="">
        <emissions CO_abs="1915.245990" CO2_abs="190681.977382" HC_abs="12.288948" PMx_abs="3.021597" NOx_abs="70.885426" fuel_abs="81.966009" electricity_abs="0"/>
    </tripinfo>
    <tripinfo id="L4-CV-9" depart="183.00" departLane="top-approaching_0" departPos="5.10" departSpeed="0.00" departDelay="0.00" arrival="259.20" arrivalLane="bottom-exit_0" arrivalPos="486.40" arrivalSpeed="14.83" duration="76.20" routeLength="994.90" waitingTime="0.10" waitingCount="1" stopTime="0.00" timeLoss="9.01" rerouteNo="0" devices="tripinfo_L4-CV-9 emissions_L4-CV-9 ssm_L4-CV-9 toc_L4-CV-9 driverstateL4-CV-9" vType="L4-CV-95" speedFactor="0.89" vaporized="">
        <emissions CO_abs="1548.676764" CO2_abs="210134.017448" HC_abs="9.467738" PMx_abs="1.966845" NOx_abs="70.350830" fuel_abs="90.328863" electricity_abs="0"/>
    </tripinfo>
    <tripinfo id="L2-CV-11" depart="161.40" departLane="top-approaching_0" departPos="5.10" departSpeed="0.00" departDelay="2.90" arrival="263.30" arrivalLane="right-exit_0" arrivalPos="486.40" arrivalSpeed="18.70" duration="101.90" routeLength="992.21" waitingTime="19.40" waitingCount="4" stopTime="0.00" timeLoss="47.94" rerouteNo="0" devices="tripinfo_L2-CV-11 emissions_L2-CV-11 ssm_L2-CV-11 toc_L2-CV-11 driverstateL2-CV-11" vType="L2-CV-79" speedFactor="1.12" vaporized="">
        <emissions CO_abs="7449.551589" CO2_abs="338481.130930" HC_abs="40.169905" PMx_abs="5.715232" NOx_abs="131.886394" fuel_abs="145.501069" electricity_abs="0"/>
    </tripinfo>
    <tripinfo id="L2-CV-19" depart="189.70" departLane="top-approaching_0" departPos="5.10" departSpeed="0.00" departDelay="3.20" arrival="268.00" arrivalLane="right-exit_1" arrivalPos="486.40" arrivalSpeed="18.31" duration="78.30" routeLength="992.21" waitingTime="0.00" waitingCount="0" stopTime="0.00" timeLoss="23.19" rerouteNo="0" devices="tripinfo_L2-CV-19 emissions_L2-CV-19 ssm_L2-CV-19 toc_L2-CV-19 driverstateL2-CV-19" vType="L2-CV-52" speedFactor="1.10" vaporized="">
        <emissions CO_abs="3164.540303" CO2_abs="262888.608217" HC_abs="18.874633" PMx_abs="3.880313" NOx_abs="97.607859" fuel_abs="113.005182" electricity_abs="0"/>
    </tripinfo>
    <tripinfo id="L2-AV-16" depart="176.00" departLane="top-approaching_0" departPos="5.10" departSpeed="0.00" departDelay="0.00" arrival="268.80" arrivalLane="right-exit_0" arrivalPos="486.40" arrivalSpeed="15.70" duration="92.80" routeLength="992.21" waitingTime="0.00" waitingCount="0" stopTime="0.00" timeLoss="28.56" rerouteNo="0" devices="tripinfo_L2-AV-16 emissions_L2-AV-16 ssm_L2-AV-16 toc_L2-AV-16 driverstateL2-AV-16" vType="L2-AV-74" speedFactor="0.94" vaporized="">
        <emissions CO_abs="2616.980027" CO2_abs="236252.537008" HC_abs="15.038907" PMx_abs="2.985938" NOx_abs="85.064394" fuel_abs="101.555773" electricity_abs="0"/>
    </tripinfo>
    <tripinfo id="L4-AV-11" depart="203.90" departLane="top-approaching_0" departPos="5.10" departSpeed="0.00" departDelay="6.90" arrival="272.20" arrivalLane="right-exit_1" arrivalPos="486.40" arrivalSpeed="18.66" duration="68.30" routeLength="992.21" waitingTime="0.00" waitingCount="0" stopTime="0.00" timeLoss="14.21" rerouteNo="0" devices="tripinfo_L4-AV-11 emissions_L4-AV-11 ssm_L4-AV-11 toc_L4-AV-11 driverstateL4-AV-11" vType="L4-AV-85" speedFactor="1.12" vaporized="">
        <emissions CO_abs="2149.247959" CO2_abs="238952.119817" HC_abs="13.553410" PMx_abs="3.239326" NOx_abs="85.958782" fuel_abs="102.715714" electricity_abs="0"/>
    </tripinfo>
    <tripinfo id="L2-CV-4" depart="134.00" departLane="left-long-approaching_0" departPos="5.10" departSpeed="0.00" departDelay="0.00" arrival="290.70" arrivalLane="right-exit_0" arrivalPos="486.40" arrivalSpeed="15.36" duration="156.70" routeLength="995.23" waitingTime="81.00" waitingCount="1" stopTime="0.00" timeLoss="91.83" rerouteNo="0" devices="tripinfo_L2-CV-4 emissions_L2-CV-4 ssm_L2-CV-4 toc_L2-CV-4 driverstateL2-CV-4" vType="L2-CV-44@L2-CV-4" speedFactor="0.92" vaporized="">
        <emissions CO_abs="15327.061580" CO2_abs="445753.339570" HC_abs="78.004784" PMx_abs="8.112715" NOx_abs="179.959187" fuel_abs="191.617179" electricity_abs="0"/>
    </tripinfo>
    <tripinfo id="L4-CV-3" depart="141.00" departLane="right-approaching_0" departPos="5.10" departSpeed="0.00" departDelay="0.00" arrival="291.20" arrivalLane="top-exit_0" arrivalPos="486.40" arrivalSpeed="16.52" duration="150.20" routeLength="979.43" waitingTime="72.70" waitingCount="1" stopTime="0.00" timeLoss="89.99" rerouteNo="0" devices="tripinfo_L4-CV-3 emissions_L4-CV-3 ssm_L4-CV-3 toc_L4-CV-3 driverstateL4-CV-3" vType="L4-CV-12" speedFactor="0.99" vaporized="">
        <emissions CO_abs="15018.004932" CO2_abs="442941.772510" HC_abs="76.263039" PMx_abs="8.164480" NOx_abs="179.253857" fuel_abs="190.408183" electricity_abs="0"/>
    </tripinfo>
    <tripinfo id="L2-CV-10" depart="155.00" departLane="left-long-approaching_0" departPos="5.10" departSpeed="0.00" departDelay="0.00" arrival="291.30" arrivalLane="right-exit_1" arrivalPos="486.40" arrivalSpeed="15.11" duration="136.30" routeLength="995.23" waitingTime="60.00" waitingCount="1" stopTime="0.00" timeLoss="70.33" rerouteNo="0" devices="tripinfo_L2-CV-10 emissions_L2-CV-10 ssm_L2-CV-10 toc_L2-CV-10 driverstateL2-CV-10" vType="L2-CV-3" speedFactor="0.91" vaporized="">
        <emissions CO_abs="11852.045164" CO2_abs="391024.746952" HC_abs="60.965386" PMx_abs="6.672492" NOx_abs="154.564372" fuel_abs="168.090179" electricity_abs="0"/>
    </tripinfo>
    <tripinfo id="L4-AV-4" depart="148.00" departLane="left-long-approaching_0" departPos="5.10" departSpeed="0.00" departDelay="0.00" arrival="292.20" arrivalLane="bottom-exit_0" arrivalPos="486.40" arrivalSpeed="16.95" duration="144.20" routeLength="979.53" waitingTime="1.30" waitingCount="2" stopTime="0.00" timeLoss="85.47" rerouteNo="0" devices="tripinfo_L4-AV-4 emissions_L4-AV-4 ssm_L4-AV-4 toc_L4-AV-4 driverstateL4-AV-4" vType="L4-AV-Right-59" speedFactor="1.02" vaporized="">
        <emissions CO_abs="3281.215741" CO2_abs="236924.012371" HC_abs="18.634108" PMx_abs="3.412348" NOx_abs="88.368759" fuel_abs="101.844390" electricity_abs="0"/>
    </tripinfo>
    <tripinfo id="L2-CV-13" depart="165.50" departLane="left-long-approaching_0" departPos="5.10" departSpeed="0.00" departDelay="0.00" arrival="292.30" arrivalLane="right-exit_0" arrivalPos="486.40" arrivalSpeed="16.14" duration="126.80" routeLength="995.23" waitingTime="47.00" waitingCount="23" stopTime="0.00" timeLoss="65.17" rerouteNo="0" devices="tripinfo_L2-CV-13 emissions_L2-CV-13 ssm_L2-CV-13 toc_L2-CV-13 driverstateL2-CV-13" vType="L2-CV-38@L2-CV-13" speedFactor="0.97" vaporized="">
        <emissions CO_abs="8412.488635" CO2_abs="297967.638783" HC_abs="44.035261" PMx_abs="5.299171" NOx_abs="119.376479" fuel_abs="128.086817" electricity_abs="0"/>
    </tripinfo>
    <tripinfo id="L4-AV-8" depart="176.00" departLane="right-approaching_0" departPos="5.10" departSpeed="0.00" departDelay="0.00" arrival="292.40" arrivalLane="top-exit_1" arrivalPos="486.40" arrivalSpeed="17.06" duration="116.40" routeLength="979.43" waitingTime="0.00" waitingCount="0" stopTime="0.00" timeLoss="58.06" rerouteNo="0" devices="tripinfo_L4-AV-8 emissions_L4-AV-8 ssm_L4-AV-8 toc_L4-AV-8 driverstateL4-AV-8" vType="L4-AV-0" speedFactor="1.02" vaporized="">
        <emissions CO_abs="3229.715589" CO2_abs="220880.354467" HC_abs="18.826891" PMx_abs="3.288262" NOx_abs="83.790905" fuel_abs="94.947887" electricity_abs="0"/>
    </tripinfo>
    <tripinfo id="L2-AV-13" depart="168.30" departLane="left-long-approaching_0" departPos="5.10" departSpeed="0.00" departDelay="2.80" arrival="293.70" arrivalLane="right-exit_1" arrivalPos="486.40" arrivalSpeed="18.33" duration="125.40" routeLength="995.23" waitingTime="4.30" waitingCount="2" stopTime="0.00" timeLoss="70.98" rerouteNo="0" devices="tripinfo_L2-AV-13 emissions_L2-AV-13 ssm_L2-AV-13 toc_L2-AV-13 driverstateL2-AV-13" vType="L2-AV-15" speedFactor="1.10" vaporized="">
        <emissions CO_abs="3389.346940" CO2_abs="200600.892210" HC_abs="19.873892" PMx_abs="3.572071" NOx_abs="80.865533" fuel_abs="86.230044" electricity_abs="0"/>
    </tripinfo>
    <tripinfo id="L4-CV-7" depart="169.00" departLane="left-long-approaching_0" departPos="5.10" departSpeed="0.00" departDelay="0.00" arrival="294.90" arrivalLane="right-exit_0" arrivalPos="486.40" arrivalSpeed="16.97" duration="125.90" routeLength="995.23" waitingTime="0.10" waitingCount="1" stopTime="0.00" timeLoss="67.15" rerouteNo="0" devices="tripinfo_L4-CV-7 emissions_L4-CV-7 ssm_L4-CV-7 toc_L4-CV-7 driverstateL4-CV-7" vType="L4-CV-59@L4-CV-7" speedFactor="1.02" vaporized="">
        <emissions CO_abs="3706.678983" CO2_abs="269172.414705" HC_abs="21.352061" PMx_abs="3.795664" NOx_abs="99.570925" fuel_abs="115.706917" electricity_abs="0"/>
    </tripinfo>
    <tripinfo id="L2-AV-14" depart="173.00" departLane="left-long-approaching_0" departPos="5.10" departSpeed="0.00" departDelay="4.00" arrival="295.00" arrivalLane="right-exit_1" arrivalPos="486.40" arrivalSpeed="17.11" duration="122.00" routeLength="995.23" waitingTime="0.00" waitingCount="0" stopTime="0.00" timeLoss="63.69" rerouteNo="0" devices="tripinfo_L2-AV-14 emissions_L2-AV-14 ssm_L2-AV-14 toc_L2-AV-14 driverstateL2-AV-14" vType="L2-AV-15" speedFactor="1.03" vaporized="">
        <emissions CO_abs="3217.747304" CO2_abs="216476.327915" HC_abs="18.941629" PMx_abs="3.416954" NOx_abs="83.468056" fuel_abs="93.054547" electricity_abs="0"/>
    </tripinfo>
    <tripinfo id="L2-AV-10" depart="157.80" departLane="left-long-approaching_0" departPos="5.10" departSpeed="0.00" departDelay="2.80" arrival="295.30" arrivalLane="bottom-exit_0" arrivalPos="486.40" arrivalSpeed="17.19" duration="137.50" routeLength="979.53" waitingTime="0.00" waitingCount="0" stopTime="0.00" timeLoss="79.54" rerouteNo="0" devices="tripinfo_L2-AV-10 emissions_L2-AV-10 ssm_L2-AV-10 toc_L2-AV-10 driverstateL2-AV-10" vType="L2-AV-Right-1" speedFactor="1.03" vaporized="">
        <emissions CO_abs="3736.518778" CO2_abs="249049.900626" HC_abs="21.121655" PMx_abs="3.641671" NOx_abs="93.303052" fuel_abs="107.057038" electricity_abs="0"/>
    </tripinfo>
    <tripinfo id="L0-HDV-8" depart="210.50" departLane="right-approaching_0" departPos="5.10" departSpeed="0.00" departDelay="2.50" arrival="295.90" arrivalLane="top-exit_1" arrivalPos="486.40" arrivalSpeed="18.91" duration="85.40" routeLength="979.43" waitingTime="0.00" waitingCount="0" stopTime="0.00" timeLoss="32.81" rerouteNo="0" devices="tripinfo_L0-HDV-8 emissions_L0-HDV-8 ssm_L0-HDV-8" vType="L0-HDV-77" speedFactor="1.14" vaporized="">
        <emissions CO_abs="3747.089638" CO2_abs="222181.310999" HC_abs="22.206111" PMx_abs="4.008635" NOx_abs="89.772994" fuel_abs="95.506543" electricity_abs="0"/>
    </tripinfo>
    <tripinfo id="L2-CV-12" depart="162.00" departLane="left-long-approaching_0" departPos="5.10" departSpeed="0.00" departDelay="0.00" arrival="296.80" arrivalLane="bottom-exit_0" arrivalPos="486.40" arrivalSpeed="17.75" duration="134.80" routeLength="979.53" waitingTime="0.00" waitingCount="0" stopTime="0.00" timeLoss="78.70" rerouteNo="0" devices="tripinfo_L2-CV-12 emissions_L2-CV-12 ssm_L2-CV-12 toc_L2-CV-12 driverstateL2-CV-12" vType="L2-CV-Right-47" speedFactor="1.07" vaporized="">
        <emissions CO_abs="3801.645427" CO2_abs="209129.682629" HC_abs="21.754135" PMx_abs="3.530787" NOx_abs="82.731563" fuel_abs="89.896750" electricity_abs="0"/>
    </tripinfo>
    <tripinfo id="L4-CV-17" depart="239.00" departLane="left-long-approaching_0" departPos="5.10" departSpeed="0.00" departDelay="0.00" arrival="299.90" arrivalLane="bottom-exit_1" arrivalPos="486.40" arrivalSpeed="19.65" duration="60.90" routeLength="979.53" waitingTime="0.00" waitingCount="0" stopTime="0.00" timeLoss="10.12" rerouteNo="0" devices="tripinfo_L4-CV-17 emissions_L4-CV-17 ssm_L4-CV-17 toc_L4-CV-17 driverstateL4-CV-17" vType="L4-CV-Right-21" speedFactor="1.18" vaporized="">
        <emissions CO_abs="2251.657411" CO2_abs="251295.330164" HC_abs="14.738954" PMx_abs="3.879805" NOx_abs="92.481145" fuel_abs="108.021004" electricity_abs="0"/>
    </tripinfo>
    <tripinfo id="L2-CV-27" depart="214.50" departLane="right-approaching_0" departPos="5.10" departSpeed="0.00" departDelay="0.00" arrival="300.80" arrivalLane="top-exit_1" arrivalPos="486.40" arrivalSpeed="17.21" duration="86.30" routeLength="979.43" waitingTime="0.00" waitingCount="0" stopTime="0.00" timeLoss="28.45" rerouteNo="0" devices="tripinfo_L2-CV-27 emissions_L2-CV-27 ssm_L2-CV-27 toc_L2-CV-27 driverstateL2-CV-27" vType="L2-CV-38" speedFactor="1.03" vaporized="">
        <emissions CO_abs="2888.744006" CO2_abs="243888.171896" HC_abs="17.698968" PMx_abs="3.596944" NOx_abs="91.366044" fuel_abs="104.837618" electricity_abs="0"/>
    </tripinfo>
    <tripinfo id="L2-AV-25" depart="207.50" departLane="right-approaching_0" departPos="5.10" departSpeed="0.00" departDelay="0.00" arrival="300.80" arrivalLane="top-exit_0" arrivalPos="486.40" arrivalSpeed="14.55" duration="93.30" routeLength="979.43" waitingTime="0.00" waitingCount="0" stopTime="0.00" timeLoss="24.86" rerouteNo="0" devices="tripinfo_L2-AV-25 emissions_L2-AV-25 ssm_L2-AV-25 toc_L2-AV-25 driverstateL2-AV-25" vType="L2-AV-75" speedFactor="0.87" vaporized="">
        <emissions CO_abs="2658.219817" CO2_abs="234905.523899" HC_abs="15.537986" PMx_abs="2.848414" NOx_abs="84.650198" fuel_abs="100.976958" electricity_abs="0"/>
    </tripinfo>
    <tripinfo id="L4-AV-12" depart="204.00" departLane="left-long-approaching_0" departPos="5.10" departSpeed="0.00" departDelay="0.00" arrival="301.40" arrivalLane="bottom-exit_0" arrivalPos="486.40" arrivalSpeed="16.45" duration="97.40" routeLength="979.53" waitingTime="0.00" waitingCount="0" stopTime="0.00" timeLoss="36.88" rerouteNo="0" devices="tripinfo_L4-AV-12 emissions_L4-AV-12 ssm_L4-AV-12 toc_L4-AV-12 driverstateL4-AV-12" vType="L4-AV-Right-48" speedFactor="0.99" vaporized="">
        <emissions CO_abs="3208.790549" CO2_abs="248767.275674" HC_abs="18.245556" PMx_abs="3.425387" NOx_abs="91.562340" fuel_abs="106.935366" electricity_abs="0"/>
    </tripinfo>