<?xml version="1.0" encoding="UTF-8"?>

<!-- generated on 04/17/21 21:21:23 by Eclipse SUMO GUI Version 1.8.0
<configuration xmlns:xsi="http://www.w3.org/2001/XMLSchema-instance" xsi:noNamespaceSchemaLocation="http://sumo.dlr.de/xsd/sumoConfiguration.xsd">

    <input>
        <net-file value="Collision\RealTMSPenetration3\../CollisionIntersection.net.xml"/>
        <route-files value="Collision\RealTMSPenetration3\../CrashedVehicleRoutes.rou.xml,Collision\RealTMSPenetration3\Route-Files/L4-CV-Route.rou.xml,Collision\RealTMSPenetration3\Route-Files/L4-AV-Route.rou.xml,Collision\RealTMSPenetration3\Route-Files/L2-CV-Route.rou.xml,Collision\RealTMSPenetration3\Route-Files/L2-AV-Route.rou.xml,Collision\RealTMSPenetration3\Route-Files/L0-HDV-Route.rou.xml"/>
        <additional-files value="Collision\RealTMSPenetration3\../Additional-Files/Collision-Detectors.add.xml,Collision\RealTMSPenetration3\../Additional-Files/Collision-TMS-Rerouters.add.xml,Collision\RealTMSPenetration3\PreparingVehicleModels/Vehicle-Models/L4-CV.add.xml,Collision\RealTMSPenetration3\PreparingVehicleModels/Vehicle-Models/L4-CV-Left.add.xml,Collision\RealTMSPenetration3\PreparingVehicleModels/Vehicle-Models/L4-CV-Right.add.xml,Collision\RealTMSPenetration3\PreparingVehicleModels/Vehicle-Models/L4-AV.add.xml,Collision\RealTMSPenetration3\PreparingVehicleModels/Vehicle-Models/L4-AV-Left.add.xml,Collision\RealTMSPenetration3\PreparingVehicleModels/Vehicle-Models/L4-AV-Right.add.xml,Collision\RealTMSPenetration3\PreparingVehicleModels/Vehicle-Models/L2-CV.add.xml,Collision\RealTMSPenetration3\PreparingVehicleModels/Vehicle-Models/L2-CV-Left.add.xml,Collision\RealTMSPenetration3\PreparingVehicleModels/Vehicle-Models/L2-CV-Right.add.xml,Collision\RealTMSPenetration3\PreparingVehicleModels/Vehicle-Models/L2-AV.add.xml,Collision\RealTMSPenetration3\PreparingVehicleModels/Vehicle-Models/L2-AV-Left.add.xml,Collision\RealTMSPenetration3\PreparingVehicleModels/Vehicle-Models/L2-AV-Right.add.xml,Collision\RealTMSPenetration3\PreparingVehicleModels/Vehicle-Models/L0-HDV.add.xml,Collision\RealTMSPenetration3\PreparingVehicleModels/Vehicle-Models/L0-HDV-Left.add.xml,Collision\RealTMSPenetration3\PreparingVehicleModels/Vehicle-Models/L0-HDV-Straight.add.xml,Collision\RealTMSPenetration3\../Additional-Files/Collision-Traffic-lights.add.xml,Collision\RealTMSPenetration3\../Additional-Files/Collision-Traffic-Signs.add.xml"/>
    </input>

    <output>
        <tripinfo-output value="Collision\RealTMSPenetration3\Output-Files\TripInfo.xml"/>
    </output>

    <time>
        <begin value="0"/>
        <step-length value="0.1"/>
    </time>

    <processing>
        <ignore-route-errors value="true"/>
        <waiting-time-memory value="300"/>
        <default.action-step-length value="0.1"/>
    </processing>

    <report>
        <no-warnings value="true"/>
    </report>

    <emissions>
        <device.emissions.probability value="1"/>
    </emissions>

    <traci_server>
        <remote-port value="53469"/>
    </traci_server>

    <gui_only>
        <quit-on-end value="true"/>
        <start value="true"/>
        <tracker-interval value="0.1"/>
    </gui_only>

</configuration>
-->

<tripinfos xmlns:xsi="http://www.w3.org/2001/XMLSchema-instance" xsi:noNamespaceSchemaLocation="http://sumo.dlr.de/xsd/tripinfo_file.xsd">
    <tripinfo id="L2-CV-2" depart="128.40" departLane="right-approaching_0" departPos="5.10" departSpeed="0.00" departDelay="0.00" arrival="192.30" arrivalLane="top-exit_0" arrivalPos="486.40" arrivalSpeed="20.01" duration="63.90" routeLength="979.43" waitingTime="0.00" waitingCount="0" stopTime="0.00" timeLoss="14.03" rerouteNo="0" devices="tripinfo_L2-CV-2 emissions_L2-CV-2 ssm_L2-CV-2 toc_L2-CV-2 driverstateL2-CV-2" vType="L2-CV-0" speedFactor="1.20" vaporized="">
        <emissions CO_abs="2727.306170" CO2_abs="261048.281987" HC_abs="17.286980" PMx_abs="4.076279" NOx_abs="96.937830" fuel_abs="112.213621" electricity_abs="0"/>
    </tripinfo>
    <tripinfo id="L2-AV-5" depart="141.00" departLane="right-approaching_0" departPos="5.10" departSpeed="0.00" departDelay="0.00" arrival="209.60" arrivalLane="bottom-exit_0" arrivalPos="486.40" arrivalSpeed="16.81" duration="68.60" routeLength="992.21" waitingTime="0.00" waitingCount="0" stopTime="0.00" timeLoss="8.53" rerouteNo="0" devices="tripinfo_L2-AV-5 emissions_L2-AV-5 ssm_L2-AV-5 toc_L2-AV-5 driverstateL2-AV-5" vType="L2-AV-97" speedFactor="1.01" vaporized="">
        <emissions CO_abs="1898.294257" CO2_abs="228771.623225" HC_abs="11.357479" PMx_abs="2.811591" NOx_abs="80.313875" fuel_abs="98.339685" electricity_abs="0"/>
    </tripinfo>
    <tripinfo id="L2-AV-8" depart="157.50" departLane="top-approaching_0" departPos="5.10" departSpeed="0.00" departDelay="3.90" arrival="219.80" arrivalLane="right-exit_0" arrivalPos="486.40" arrivalSpeed="17.29" duration="62.30" routeLength="967.70" waitingTime="0.00" waitingCount="0" stopTime="0.00" timeLoss="7.93" rerouteNo="0" devices="tripinfo_L2-AV-8 emissions_L2-AV-8 ssm_L2-AV-8 toc_L2-AV-8 driverstateL2-AV-8" vType="L2-AV-23" speedFactor="1.04" vaporized="">
        <emissions CO_abs="1247.717530" CO2_abs="169657.812448" HC_abs="7.619476" PMx_abs="2.034472" NOx_abs="58.599586" fuel_abs="72.929040" electricity_abs="0"/>
    </tripinfo>
    <tripinfo id="L2-CV-5" depart="141.00" departLane="top-approaching_0" departPos="5.10" departSpeed="0.00" departDelay="0.00" arrival="234.80" arrivalLane="bottom-exit_0" arrivalPos="486.40" arrivalSpeed="17.60" duration="93.80" routeLength="994.90" waitingTime="24.80" waitingCount="1" stopTime="0.00" timeLoss="37.14" rerouteNo="0" devices="tripinfo_L2-CV-5 emissions_L2-CV-5 ssm_L2-CV-5 toc_L2-CV-5 driverstateL2-CV-5" vType="L2-CV-19" speedFactor="1.06" vaporized="">
        <emissions CO_abs="6495.941525" CO2_abs="310819.560117" HC_abs="34.291408" PMx_abs="5.114192" NOx_abs="119.157429" fuel_abs="133.610167" electricity_abs="0"/>
    </tripinfo>
    <tripinfo id="L2-CV-13" depart="174.60" departLane="bottom-approaching_0" departPos="5.10" departSpeed="0.00" departDelay="0.00" arrival="238.30" arrivalLane="top-exit_1" arrivalPos="486.40" arrivalSpeed="19.13" duration="63.70" routeLength="994.90" waitingTime="0.10" waitingCount="1" stopTime="0.00" timeLoss="11.65" rerouteNo="0" devices="tripinfo_L2-CV-13 emissions_L2-CV-13 ssm_L2-CV-13 toc_L2-CV-13 driverstateL2-CV-13" vType="L2-CV-79" speedFactor="1.15" vaporized="">
        <emissions CO_abs="2091.491809" CO2_abs="234800.943359" HC_abs="13.279698" PMx_abs="3.286035" NOx_abs="83.585918" fuel_abs="100.931281" electricity_abs="0"/>
    </tripinfo>
    <tripinfo id="L4-AV-0" depart="120.00" departLane="bottom-approaching_0" departPos="5.10" departSpeed="0.00" departDelay="0.00" arrival="242.30" arrivalLane="top-exit_0" arrivalPos="486.40" arrivalSpeed="13.99" duration="122.30" routeLength="994.90" waitingTime="39.50" waitingCount="1" stopTime="0.00" timeLoss="51.11" rerouteNo="0" devices="tripinfo_L4-AV-0 emissions_L4-AV-0 ssm_L4-AV-0 toc_L4-AV-0 driverstateL4-AV-0" vType="L4-AV-74" speedFactor="0.84" vaporized="">
        <emissions CO_abs="8627.883922" CO2_abs="334818.511741" HC_abs="45.212384" PMx_abs="5.118752" NOx_abs="128.681297" fuel_abs="143.928341" electricity_abs="0"/>
    </tripinfo>
    <tripinfo id="L4-CV-5" depart="162.00" departLane="top-approaching_0" departPos="5.10" departSpeed="0.00" departDelay="0.00" arrival="242.30" arrivalLane="bottom-exit_0" arrivalPos="486.40" arrivalSpeed="14.64" duration="80.30" routeLength="994.90" waitingTime="0.00" waitingCount="0" stopTime="0.00" timeLoss="12.28" rerouteNo="0" devices="tripinfo_L4-CV-5 emissions_L4-CV-5 ssm_L4-CV-5 toc_L4-CV-5 driverstateL4-CV-5" vType="L4-CV-22" speedFactor="0.88" vaporized="">
        <emissions CO_abs="2192.508582" CO2_abs="238165.832339" HC_abs="13.591925" PMx_abs="2.711782" NOx_abs="84.027810" fuel_abs="102.378374" electricity_abs="0"/>
    </tripinfo>
    <tripinfo id="L2-CV-11" depart="171.20" departLane="top-approaching_0" departPos="5.10" departSpeed="0.00" departDelay="5.00" arrival="242.40" arrivalLane="bottom-exit_1" arrivalPos="486.40" arrivalSpeed="17.15" duration="71.20" routeLength="994.90" waitingTime="0.00" waitingCount="0" stopTime="0.00" timeLoss="13.39" rerouteNo="0" devices="tripinfo_L2-CV-11 emissions_L2-CV-11 ssm_L2-CV-11 toc_L2-CV-11 driverstateL2-CV-11" vType="L0-HDV-45" speedFactor="1.03" vaporized="">
        <emissions CO_abs="2571.639156" CO2_abs="228473.345463" HC_abs="16.336870" PMx_abs="3.557136" NOx_abs="87.063376" fuel_abs="98.211045" electricity_abs="0"/>
    </tripinfo>
    <tripinfo id="L2-CV-10" depart="168.00" departLane="top-approaching_0" departPos="5.10" departSpeed="0.00" departDelay="6.00" arrival="243.50" arrivalLane="bottom-exit_0" arrivalPos="486.40" arrivalSpeed="16.45" duration="75.50" routeLength="994.90" waitingTime="0.00" waitingCount="0" stopTime="0.00" timeLoss="16.20" rerouteNo="0" devices="tripinfo_L2-CV-10 emissions_L2-CV-10 ssm_L2-CV-10 toc_L2-CV-10 driverstateL2-CV-10" vType="L2-CV-8" speedFactor="1.01" vaporized="">
        <emissions CO_abs="2321.836890" CO2_abs="191613.486878" HC_abs="14.030791" PMx_abs="2.836556" NOx_abs="72.290319" fuel_abs="82.366817" electricity_abs="0"/>
    </tripinfo>
    <tripinfo id="L2-AV-2" depart="128.40" departLane="top-approaching_0" departPos="5.10" departSpeed="0.00" departDelay="0.00" arrival="248.30" arrivalLane="right-exit_0" arrivalPos="486.40" arrivalSpeed="16.59" duration="119.90" routeLength="992.21" waitingTime="39.80" waitingCount="2" stopTime="0.00" timeLoss="59.13" rerouteNo="0" devices="tripinfo_L2-AV-2 emissions_L2-AV-2 ssm_L2-AV-2 toc_L2-AV-2 driverstateL2-AV-2" vType="L2-AV-56" speedFactor="1.00" vaporized="">
        <emissions CO_abs="9748.503113" CO2_abs="359813.170205" HC_abs="50.180342" PMx_abs="6.140478" NOx_abs="141.370586" fuel_abs="154.672188" electricity_abs="0"/>
    </tripinfo>
    <tripinfo id="L2-CV-4" depart="136.80" departLane="top-approaching_0" departPos="5.10" departSpeed="0.00" departDelay="0.00" arrival="250.50" arrivalLane="right-exit_0" arrivalPos="486.40" arrivalSpeed="16.22" duration="113.70" routeLength="992.21" waitingTime="27.50" waitingCount="2" stopTime="0.00" timeLoss="51.73" rerouteNo="0" devices="tripinfo_L2-CV-4 emissions_L2-CV-4 ssm_L2-CV-4 toc_L2-CV-4 driverstateL2-CV-4" vType="L2-CV-11" speedFactor="0.97" vaporized="">
        <emissions CO_abs="5907.093504" CO2_abs="299405.852285" HC_abs="31.059418" PMx_abs="4.537728" NOx_abs="113.025937" fuel_abs="128.703982" electricity_abs="0"/>
    </tripinfo>
    <tripinfo id="L4-AV-6" depart="177.90" departLane="top-approaching_0" departPos="5.10" departSpeed="0.00" departDelay="7.50" arrival="251.20" arrivalLane="bottom-exit_1" arrivalPos="486.40" arrivalSpeed="18.14" duration="73.30" routeLength="994.90" waitingTime="0.10" waitingCount="1" stopTime="0.00" timeLoss="18.33" rerouteNo="0" devices="tripinfo_L4-AV-6 emissions_L4-AV-6 ssm_L4-AV-6 toc_L4-AV-6 driverstateL4-AV-6" vType="L4-AV-14" speedFactor="1.09" vaporized="">
        <emissions CO_abs="2010.777069" CO2_abs="208788.148802" HC_abs="12.651767" PMx_abs="2.730337" NOx_abs="75.419026" fuel_abs="89.749672" electricity_abs="0"/>
    </tripinfo>
    <tripinfo id="L4-CV-4" depart="153.60" departLane="top-approaching_0" departPos="5.10" departSpeed="0.00" departDelay="0.00" arrival="253.60" arrivalLane="right-exit_0" arrivalPos="486.40" arrivalSpeed="16.52" duration="100.00" routeLength="992.21" waitingTime="4.80" waitingCount="28" stopTime="0.00" timeLoss="38.91" rerouteNo="0" devices="tripinfo_L4-CV-4 emissions_L4-CV-4 ssm_L4-CV-4 toc_L4-CV-4 driverstateL4-CV-4" vType="L4-CV-12" speedFactor="0.99" vaporized="">
        <emissions CO_abs="5515.774954" CO2_abs="300354.044625" HC_abs="30.089637" PMx_abs="4.459074" NOx_abs="113.156314" fuel_abs="129.111478" electricity_abs="0"/>
    </tripinfo>
    <tripinfo id="L0-HDV-5" depart="180.00" departLane="top-approaching_0" departPos="5.10" departSpeed="0.00" departDelay="0.00" arrival="255.20" arrivalLane="bottom-exit_0" arrivalPos="486.40" arrivalSpeed="14.05" duration="75.20" routeLength="994.90" waitingTime="0.00" waitingCount="0" stopTime="0.00" timeLoss="4.34" rerouteNo="0" devices="tripinfo_L0-HDV-5 emissions_L0-HDV-5 ssm_L0-HDV-5" vType="L0-HDV-70" speedFactor="0.84" vaporized="">
        <emissions CO_abs="1165.355341" CO2_abs="136775.845710" HC_abs="8.202760" PMx_abs="1.664548" NOx_abs="49.327991" fuel_abs="58.794569" electricity_abs="0"/>
    </tripinfo>
    <tripinfo id="L2-CV-3" depart="132.60" departLane="bottom-approaching_0" departPos="5.10" departSpeed="0.00" departDelay="0.00" arrival="257.80" arrivalLane=":center_18_0" arrivalPos="9.75" arrivalSpeed="0.01" duration="125.20" routeLength="504.47" waitingTime="59.70" waitingCount="5" stopTime="0.00" timeLoss="94.67" rerouteNo="0" devices="tripinfo_L2-CV-3 emissions_L2-CV-3 ssm_L2-CV-3 toc_L2-CV-3 driverstateL2-CV-3" vType="L2-CV-15" speedFactor="1.02" vaporized="gui">
        <emissions CO_abs="14781.674499" CO2_abs="335419.511170" HC_abs="74.161187" PMx_abs="7.055230" NOx_abs="142.953600" fuel_abs="144.188975" electricity_abs="0"/>
    </tripinfo>
    <tripinfo id="L4-AV-8" depart="187.20" departLane="bottom-approaching_0" departPos="5.10" departSpeed="0.00" departDelay="0.00" arrival="260.30" arrivalLane="top-exit_0" arrivalPos="486.40" arrivalSpeed="14.62" duration="73.10" routeLength="994.90" waitingTime="0.00" waitingCount="0" stopTime="0.00" timeLoss="4.92" rerouteNo="0" devices="tripinfo_L4-AV-8 emissions_L4-AV-8 ssm_L4-AV-8 toc_L4-AV-8 driverstateL4-AV-8" vType="L4-AV-84" speedFactor="0.88" vaporized="">
        <emissions CO_abs="1135.768946" CO2_abs="202260.468928" HC_abs="7.199704" PMx_abs="1.787949" NOx_abs="66.745149" fuel_abs="86.944147" electricity_abs="0"/>
    </tripinfo>
</tripinfos>
