<?xml version="1.0" encoding="UTF-8"?>

<!-- generated on 04/18/21 18:06:29 by Eclipse SUMO GUI Version 1.8.0
<configuration xmlns:xsi="http://www.w3.org/2001/XMLSchema-instance" xsi:noNamespaceSchemaLocation="http://sumo.dlr.de/xsd/sumoConfiguration.xsd">

    <input>
        <net-file value="Collision\RealTMSPenetration3\../CollisionIntersection.net.xml"/>
        <route-files value="Collision\RealTMSPenetration3\../CrashedVehicleRoutes.rou.xml,Collision\RealTMSPenetration3\Route-Files/L4-CV-Route.rou.xml,Collision\RealTMSPenetration3\Route-Files/L4-AV-Route.rou.xml,Collision\RealTMSPenetration3\Route-Files/L2-CV-Route.rou.xml,Collision\RealTMSPenetration3\Route-Files/L2-AV-Route.rou.xml,Collision\RealTMSPenetration3\Route-Files/L0-HDV-Route.rou.xml"/>
        <additional-files value="Collision\RealTMSPenetration3\../Additional-Files/Collision-Detectors.add.xml,Collision\RealTMSPenetration3\../Additional-Files/Collision-TMS-Rerouters.add.xml,Collision\RealTMSPenetration3\PreparingVehicleModels/Vehicle-Models/L4-CV.add.xml,Collision\RealTMSPenetration3\PreparingVehicleModels/Vehicle-Models/L4-CV-Left.add.xml,Collision\RealTMSPenetration3\PreparingVehicleModels/Vehicle-Models/L4-CV-Right.add.xml,Collision\RealTMSPenetration3\PreparingVehicleModels/Vehicle-Models/L4-AV.add.xml,Collision\RealTMSPenetration3\PreparingVehicleModels/Vehicle-Models/L4-AV-Left.add.xml,Collision\RealTMSPenetration3\PreparingVehicleModels/Vehicle-Models/L4-AV-Right.add.xml,Collision\RealTMSPenetration3\PreparingVehicleModels/Vehicle-Models/L2-CV.add.xml,Collision\RealTMSPenetration3\PreparingVehicleModels/Vehicle-Models/L2-CV-Left.add.xml,Collision\RealTMSPenetration3\PreparingVehicleModels/Vehicle-Models/L2-CV-Right.add.xml,Collision\RealTMSPenetration3\PreparingVehicleModels/Vehicle-Models/L2-AV.add.xml,Collision\RealTMSPenetration3\PreparingVehicleModels/Vehicle-Models/L2-AV-Left.add.xml,Collision\RealTMSPenetration3\PreparingVehicleModels/Vehicle-Models/L2-AV-Right.add.xml,Collision\RealTMSPenetration3\PreparingVehicleModels/Vehicle-Models/L0-HDV.add.xml,Collision\RealTMSPenetration3\PreparingVehicleModels/Vehicle-Models/L0-HDV-Left.add.xml,Collision\RealTMSPenetration3\PreparingVehicleModels/Vehicle-Models/L0-HDV-Straight.add.xml,Collision\RealTMSPenetration3\../Additional-Files/Collision-Traffic-lights.add.xml,Collision\RealTMSPenetration3\../Additional-Files/Collision-Traffic-Signs.add.xml"/>
    </input>

    <output>
        <tripinfo-output value="Collision\RealTMSPenetration3\Output-Files\TripInfo.xml"/>
    </output>

    <time>
        <begin value="0"/>
        <step-length value="0.1"/>
    </time>

    <processing>
        <ignore-route-errors value="true"/>
        <waiting-time-memory value="300"/>
        <default.action-step-length value="0.1"/>
    </processing>

    <report>
        <no-warnings value="true"/>
    </report>

    <emissions>
        <device.emissions.probability value="1"/>
    </emissions>

    <traci_server>
        <remote-port value="58109"/>
    </traci_server>

    <gui_only>
        <quit-on-end value="true"/>
        <start value="true"/>
        <tracker-interval value="0.1"/>
    </gui_only>

</configuration>
-->

<tripinfos xmlns:xsi="http://www.w3.org/2001/XMLSchema-instance" xsi:noNamespaceSchemaLocation="http://sumo.dlr.de/xsd/tripinfo_file.xsd">
    <tripinfo id="L2-AV-1" depart="123.50" departLane="left-long-approaching_0" departPos="5.10" departSpeed="0.00" departDelay="0.00" arrival="184.30" arrivalLane="right-exit_1" arrivalPos="486.40" arrivalSpeed="19.65" duration="60.80" routeLength="995.23" waitingTime="0.10" waitingCount="1" stopTime="0.00" timeLoss="10.09" rerouteNo="0" devices="tripinfo_L2-AV-1 emissions_L2-AV-1 ssm_L2-AV-1 toc_L2-AV-1 driverstateL2-AV-1" vType="L2-AV-33" speedFactor="1.18" vaporized="">
        <emissions CO_abs="1832.501881" CO2_abs="224378.418973" HC_abs="11.545351" PMx_abs="3.060720" NOx_abs="78.027885" fuel_abs="96.451109" electricity_abs="0"/>
    </tripinfo>
    <tripinfo id="L2-AV-2" depart="127.00" departLane="right-approaching_0" departPos="5.10" departSpeed="0.00" departDelay="0.00" arrival="202.30" arrivalLane="bottom-exit_0" arrivalPos="486.40" arrivalSpeed="15.17" duration="75.30" routeLength="992.21" waitingTime="0.00" waitingCount="0" stopTime="0.00" timeLoss="8.80" rerouteNo="0" devices="tripinfo_L2-AV-2 emissions_L2-AV-2 ssm_L2-AV-2 toc_L2-AV-2 driverstateL2-AV-2" vType="L2-AV-56" speedFactor="0.91" vaporized="">
        <emissions CO_abs="2004.215767" CO2_abs="228621.204139" HC_abs="11.866535" PMx_abs="2.632204" NOx_abs="80.345367" fuel_abs="98.275286" electricity_abs="0"/>
    </tripinfo>
    <tripinfo id="L2-AV-7" depart="144.50" departLane="right-approaching_0" departPos="5.10" departSpeed="0.00" departDelay="0.00" arrival="209.40" arrivalLane="bottom-exit_0" arrivalPos="486.40" arrivalSpeed="17.16" duration="64.90" routeLength="992.21" waitingTime="0.00" waitingCount="0" stopTime="0.00" timeLoss="6.18" rerouteNo="0" devices="tripinfo_L2-AV-7 emissions_L2-AV-7 ssm_L2-AV-7 toc_L2-AV-7 driverstateL2-AV-7" vType="L2-AV-19" speedFactor="1.03" vaporized="">
        <emissions CO_abs="1672.333377" CO2_abs="166927.333310" HC_abs="9.879616" PMx_abs="2.438902" NOx_abs="61.660561" fuel_abs="71.754963" electricity_abs="0"/>
    </tripinfo>
    <tripinfo id="L2-CV-0" depart="120.00" departLane="bottom-approaching_0" departPos="5.10" departSpeed="0.00" departDelay="0.00" arrival="236.60" arrivalLane="top-exit_0" arrivalPos="486.40" arrivalSpeed="20.01" duration="116.60" routeLength="994.90" waitingTime="43.90" waitingCount="1" stopTime="0.00" timeLoss="66.82" rerouteNo="0" devices="tripinfo_L2-CV-0 emissions_L2-CV-0 ssm_L2-CV-0 toc_L2-CV-0 driverstateL2-CV-0" vType="L2-CV-0" speedFactor="1.20" vaporized="">
        <emissions CO_abs="10896.280164" CO2_abs="399021.723080" HC_abs="57.781339" PMx_abs="7.480755" NOx_abs="160.267505" fuel_abs="171.526140" electricity_abs="0"/>
    </tripinfo>
    <tripinfo id="L2-AV-0" depart="123.90" departLane="bottom-approaching_0" departPos="5.10" departSpeed="0.00" departDelay="3.90" arrival="237.30" arrivalLane="right-exit_0" arrivalPos="486.40" arrivalSpeed="16.59" duration="113.40" routeLength="979.43" waitingTime="38.80" waitingCount="1" stopTime="0.00" timeLoss="53.42" rerouteNo="0" devices="tripinfo_L2-AV-0 emissions_L2-AV-0 ssm_L2-AV-0 toc_L2-AV-0 driverstateL2-AV-0" vType="L2-AV-56" speedFactor="1.00" vaporized="">
        <emissions CO_abs="9084.559003" CO2_abs="345388.281183" HC_abs="46.814497" PMx_abs="5.820505" NOx_abs="134.945505" fuel_abs="148.471276" electricity_abs="0"/>
    </tripinfo>
    <tripinfo id="L2-CV-1" depart="130.40" departLane="bottom-approaching_0" departPos="5.10" departSpeed="0.00" departDelay="6.90" arrival="238.20" arrivalLane="right-exit_1" arrivalPos="486.40" arrivalSpeed="17.24" duration="107.80" routeLength="979.43" waitingTime="31.20" waitingCount="1" stopTime="0.00" timeLoss="50.13" rerouteNo="0" devices="tripinfo_L2-CV-1 emissions_L2-CV-1 ssm_L2-CV-1 toc_L2-CV-1 driverstateL2-CV-1" vType="L2-CV-74" speedFactor="1.03" vaporized="">
        <emissions CO_abs="6307.630261" CO2_abs="304514.794701" HC_abs="33.404231" PMx_abs="4.899651" NOx_abs="116.506711" fuel_abs="130.900058" electricity_abs="0"/>
    </tripinfo>
    <tripinfo id="L2-CV-3" depart="130.50" departLane="top-approaching_0" departPos="5.10" departSpeed="0.00" departDelay="0.00" arrival="238.80" arrivalLane="bottom-exit_0" arrivalPos="486.40" arrivalSpeed="19.13" duration="108.30" routeLength="994.90" waitingTime="31.90" waitingCount="2" stopTime="0.00" timeLoss="56.23" rerouteNo="0" devices="tripinfo_L2-CV-3 emissions_L2-CV-3 ssm_L2-CV-3 toc_L2-CV-3 driverstateL2-CV-3" vType="L2-CV-79" speedFactor="1.15" vaporized="">
        <emissions CO_abs="8956.012954" CO2_abs="363943.302417" HC_abs="47.786669" PMx_abs="6.421333" NOx_abs="143.614762" fuel_abs="156.446791" electricity_abs="0"/>
    </tripinfo>
    <tripinfo id="L0-HDV-1" depart="137.30" departLane="bottom-approaching_0" departPos="5.10" departSpeed="0.00" departDelay="6.30" arrival="240.40" arrivalLane="right-exit_0" arrivalPos="486.40" arrivalSpeed="16.53" duration="103.10" routeLength="979.43" waitingTime="29.00" waitingCount="1" stopTime="0.00" timeLoss="42.98" rerouteNo="0" devices="tripinfo_L0-HDV-1 emissions_L0-HDV-1 ssm_L0-HDV-1" vType="L0-HDV-25" speedFactor="0.99" vaporized="">
        <emissions CO_abs="6500.710622" CO2_abs="270999.556744" HC_abs="35.837553" PMx_abs="5.126313" NOx_abs="111.249344" fuel_abs="116.492748" electricity_abs="0"/>
    </tripinfo>
    <tripinfo id="L0-HDV-0" depart="127.30" departLane="bottom-approaching_0" departPos="5.10" departSpeed="0.00" departDelay="7.30" arrival="240.50" arrivalLane="top-exit_0" arrivalPos="486.40" arrivalSpeed="17.23" duration="113.20" routeLength="994.90" waitingTime="37.10" waitingCount="1" stopTime="0.00" timeLoss="55.76" rerouteNo="0" devices="tripinfo_L0-HDV-0 emissions_L0-HDV-0 ssm_L0-HDV-0" vType="L0-HDV-32" speedFactor="1.04" vaporized="">
        <emissions CO_abs="9804.516411" CO2_abs="346641.290369" HC_abs="52.704981" PMx_abs="6.859082" NOx_abs="144.614976" fuel_abs="149.009139" electricity_abs="0"/>
    </tripinfo>
    <tripinfo id="L4-AV-3" depart="141.20" departLane="top-approaching_0" departPos="5.10" departSpeed="0.00" departDelay="0.20" arrival="241.50" arrivalLane="bottom-exit_0" arrivalPos="486.40" arrivalSpeed="18.14" duration="100.30" routeLength="994.90" waitingTime="0.10" waitingCount="1" stopTime="0.00" timeLoss="45.34" rerouteNo="0" devices="tripinfo_L4-AV-3 emissions_L4-AV-3 ssm_L4-AV-3 toc_L4-AV-3 driverstateL4-AV-3" vType="L4-AV-14" speedFactor="1.09" vaporized="">
        <emissions CO_abs="3338.836091" CO2_abs="259340.203084" HC_abs="19.467649" PMx_abs="3.700919" NOx_abs="95.891868" fuel_abs="111.480182" electricity_abs="0"/>
    </tripinfo>
    <tripinfo id="L2-CV-12" depart="162.00" departLane="bottom-approaching_0" departPos="5.10" departSpeed="0.00" departDelay="0.00" arrival="243.50" arrivalLane="right-exit_0" arrivalPos="486.40" arrivalSpeed="16.83" duration="81.50" routeLength="979.43" waitingTime="0.00" waitingCount="0" stopTime="0.00" timeLoss="22.30" rerouteNo="0" devices="tripinfo_L2-CV-12 emissions_L2-CV-12 ssm_L2-CV-12 toc_L2-CV-12 driverstateL2-CV-12" vType="L2-CV-21" speedFactor="1.01" vaporized="">
        <emissions CO_abs="3221.335802" CO2_abs="261438.440723" HC_abs="18.828648" PMx_abs="3.568331" NOx_abs="95.646247" fuel_abs="112.382231" electricity_abs="0"/>
    </tripinfo>
    <tripinfo id="L0-HDV-3" depart="153.00" departLane="top-approaching_0" departPos="5.10" departSpeed="0.00" departDelay="0.00" arrival="244.50" arrivalLane="bottom-exit_0" arrivalPos="486.40" arrivalSpeed="16.92" duration="91.50" routeLength="994.90" waitingTime="0.00" waitingCount="0" stopTime="0.00" timeLoss="32.82" rerouteNo="0" devices="tripinfo_L0-HDV-3 emissions_L0-HDV-3 ssm_L0-HDV-3" vType="L0-HDV-86" speedFactor="1.02" vaporized="">
        <emissions CO_abs="4001.164105" CO2_abs="230230.236221" HC_abs="23.401339" PMx_abs="3.818346" NOx_abs="90.766030" fuel_abs="98.967051" electricity_abs="0"/>
    </tripinfo>
    <tripinfo id="L2-CV-6" depart="144.90" departLane="bottom-approaching_0" departPos="5.10" departSpeed="0.00" departDelay="3.90" arrival="246.00" arrivalLane="top-exit_1" arrivalPos="486.40" arrivalSpeed="17.38" duration="101.10" routeLength="994.90" waitingTime="0.00" waitingCount="0" stopTime="0.00" timeLoss="43.79" rerouteNo="0" devices="tripinfo_L2-CV-6 emissions_L2-CV-6 ssm_L2-CV-6 toc_L2-CV-6 driverstateL2-CV-6" vType="L2-CV-1" speedFactor="1.04" vaporized="">
        <emissions CO_abs="3445.595787" CO2_abs="263066.167011" HC_abs="20.011686" PMx_abs="3.740879" NOx_abs="97.345071" fuel_abs="113.081882" electricity_abs="0"/>
    </tripinfo>
    <tripinfo id="L4-AV-1" depart="133.20" departLane="bottom-approaching_0" departPos="5.10" departSpeed="0.00" departDelay="6.20" arrival="247.90" arrivalLane="top-exit_0" arrivalPos="486.40" arrivalSpeed="13.99" duration="114.70" routeLength="994.90" waitingTime="0.00" waitingCount="0" stopTime="0.00" timeLoss="43.53" rerouteNo="0" devices="tripinfo_L4-AV-1 emissions_L4-AV-1 ssm_L4-AV-1 toc_L4-AV-1 driverstateL4-AV-1" vType="L4-AV-74" speedFactor="0.84" vaporized="">
        <emissions CO_abs="2550.406081" CO2_abs="229838.894407" HC_abs="15.257909" PMx_abs="2.622669" NOx_abs="81.825188" fuel_abs="98.799267" electricity_abs="0"/>
    </tripinfo>
    <tripinfo id="L2-AV-3" depart="137.20" departLane="bottom-approaching_0" departPos="5.10" departSpeed="0.00" departDelay="6.70" arrival="248.70" arrivalLane="top-exit_1" arrivalPos="486.40" arrivalSpeed="14.65" duration="111.50" routeLength="994.90" waitingTime="0.00" waitingCount="0" stopTime="0.00" timeLoss="43.52" rerouteNo="0" devices="tripinfo_L2-AV-3 emissions_L2-AV-3 ssm_L2-AV-3 toc_L2-AV-3 driverstateL2-AV-3" vType="L2-AV-42" speedFactor="0.88" vaporized="">
        <emissions CO_abs="2651.982986" CO2_abs="191659.479525" HC_abs="15.279838" PMx_abs="2.580616" NOx_abs="71.228855" fuel_abs="82.387166" electricity_abs="0"/>
    </tripinfo>
    <tripinfo id="L4-CV-5" depart="156.80" departLane="top-approaching_0" departPos="5.10" departSpeed="0.00" departDelay="1.80" arrival="249.90" arrivalLane="bottom-exit_0" arrivalPos="486.40" arrivalSpeed="14.64" duration="93.10" routeLength="994.90" waitingTime="0.00" waitingCount="0" stopTime="0.00" timeLoss="25.03" rerouteNo="0" devices="tripinfo_L4-CV-5 emissions_L4-CV-5 ssm_L4-CV-5 toc_L4-CV-5 driverstateL4-CV-5" vType="L4-CV-22" speedFactor="0.88" vaporized="">
        <emissions CO_abs="2882.747462" CO2_abs="245895.667273" HC_abs="16.703751" PMx_abs="2.911872" NOx_abs="87.981272" fuel_abs="105.701413" electricity_abs="0"/>
    </tripinfo>
    <tripinfo id="L0-HDV-6" depart="186.00" departLane="bottom-approaching_0" departPos="5.10" departSpeed="0.00" departDelay="0.00" arrival="250.10" arrivalLane="top-exit_0" arrivalPos="486.40" arrivalSpeed="17.21" duration="64.10" routeLength="994.90" waitingTime="0.00" waitingCount="0" stopTime="0.00" timeLoss="6.45" rerouteNo="0" devices="tripinfo_L0-HDV-6 emissions_L0-HDV-6 ssm_L0-HDV-6" vType="L0-HDV-40" speedFactor="1.04" vaporized="">
        <emissions CO_abs="1834.166046" CO2_abs="174147.998992" HC_abs="12.198455" PMx_abs="2.781474" NOx_abs="66.452791" fuel_abs="74.858751" electricity_abs="0"/>
    </tripinfo>
    <tripinfo id="L2-CV-19" depart="189.30" departLane="bottom-approaching_0" departPos="5.10" departSpeed="0.00" departDelay="2.80" arrival="252.90" arrivalLane="top-exit_0" arrivalPos="486.40" arrivalSpeed="16.90" duration="63.60" routeLength="994.90" waitingTime="0.00" waitingCount="0" stopTime="0.00" timeLoss="4.65" rerouteNo="0" devices="tripinfo_L2-CV-19 emissions_L2-CV-19 ssm_L2-CV-19 toc_L2-CV-19 driverstateL2-CV-19" vType="L2-CV-24" speedFactor="1.01" vaporized="">
        <emissions CO_abs="1153.719380" CO2_abs="203528.087672" HC_abs="6.789183" PMx_abs="2.193703" NOx_abs="67.896269" fuel_abs="87.488518" electricity_abs="0"/>
    </tripinfo>
    <tripinfo id="L2-AV-18" depart="186.60" departLane="top-approaching_0" departPos="5.10" departSpeed="0.00" departDelay="3.60" arrival="252.90" arrivalLane="bottom-exit_0" arrivalPos="486.40" arrivalSpeed="17.11" duration="66.30" routeLength="994.90" waitingTime="0.00" waitingCount="0" stopTime="0.00" timeLoss="8.01" rerouteNo="0" devices="tripinfo_L2-AV-18 emissions_L2-AV-18 ssm_L2-AV-18 toc_L2-AV-18 driverstateL2-AV-18" vType="L2-AV-15" speedFactor="1.03" vaporized="">
        <emissions CO_abs="1436.000595" CO2_abs="192573.558218" HC_abs="8.603486" PMx_abs="2.235007" NOx_abs="66.075703" fuel_abs="82.779695" electricity_abs="0"/>
    </tripinfo>
    <tripinfo id="L4-CV-10" depart="190.00" departLane="top-approaching_0" departPos="5.10" departSpeed="0.00" departDelay="0.00" arrival="256.60" arrivalLane="bottom-exit_0" arrivalPos="486.40" arrivalSpeed="16.25" duration="66.60" routeLength="994.90" waitingTime="0.00" waitingCount="0" stopTime="0.00" timeLoss="5.31" rerouteNo="0" devices="tripinfo_L4-CV-10 emissions_L4-CV-10 ssm_L4-CV-10 toc_L4-CV-10 driverstateL4-CV-10" vType="L4-CV-30" speedFactor="0.98" vaporized="">
        <emissions CO_abs="1159.127766" CO2_abs="203340.189472" HC_abs="6.952312" PMx_abs="2.074244" NOx_abs="67.645073" fuel_abs="87.407917" electricity_abs="0"/>
    </tripinfo>
    <tripinfo id="L2-AV-11" depart="159.90" departLane="top-approaching_0" departPos="5.10" departSpeed="0.00" departDelay="1.40" arrival="261.00" arrivalLane="right-exit_1" arrivalPos="486.40" arrivalSpeed="19.04" duration="101.10" routeLength="992.21" waitingTime="0.00" waitingCount="0" stopTime="0.00" timeLoss="48.09" rerouteNo="0" devices="tripinfo_L2-AV-11 emissions_L2-AV-11 ssm_L2-AV-11 toc_L2-AV-11 driverstateL2-AV-11" vType="L2-AV-57" speedFactor="1.14" vaporized="">
        <emissions CO_abs="3594.297921" CO2_abs="267383.787170" HC_abs="20.901568" PMx_abs="4.007463" NOx_abs="99.924536" fuel_abs="114.937679" electricity_abs="0"/>
    </tripinfo>
    <tripinfo id="L4-CV-4" depart="148.00" departLane="top-approaching_0" departPos="5.10" departSpeed="0.00" departDelay="0.00" arrival="262.10" arrivalLane="right-exit_0" arrivalPos="486.40" arrivalSpeed="16.52" duration="114.10" routeLength="992.21" waitingTime="30.60" waitingCount="2" stopTime="0.00" timeLoss="53.02" rerouteNo="0" devices="tripinfo_L4-CV-4 emissions_L4-CV-4 ssm_L4-CV-4 toc_L4-CV-4 driverstateL4-CV-4" vType="L4-CV-12" speedFactor="0.99" vaporized="">
        <emissions CO_abs="8672.703826" CO2_abs="346417.792378" HC_abs="45.181272" PMx_abs="5.677017" NOx_abs="134.666482" fuel_abs="148.913711" electricity_abs="0"/>
    </tripinfo>
    <tripinfo id="L2-CV-16" depart="176.00" departLane="top-approaching_0" departPos="5.10" departSpeed="0.00" departDelay="0.00" arrival="266.00" arrivalLane="right-exit_0" arrivalPos="486.40" arrivalSpeed="16.14" duration="90.00" routeLength="992.21" waitingTime="0.00" waitingCount="0" stopTime="0.00" timeLoss="27.53" rerouteNo="0" devices="tripinfo_L2-CV-16 emissions_L2-CV-16 ssm_L2-CV-16 toc_L2-CV-16 driverstateL2-CV-16" vType="L2-CV-38" speedFactor="0.97" vaporized="">
        <emissions CO_abs="2769.433610" CO2_abs="247580.979590" HC_abs="16.005985" PMx_abs="3.226166" NOx_abs="89.450997" fuel_abs="106.425357" electricity_abs="0"/>
    </tripinfo>
    <tripinfo id="L4-CV-2" depart="134.00" departLane="right-approaching_0" departPos="5.10" departSpeed="0.00" departDelay="0.00" arrival="281.90" arrivalLane="top-exit_0" arrivalPos="486.40" arrivalSpeed="16.26" duration="147.90" routeLength="979.43" waitingTime="75.40" waitingCount="1" stopTime="0.00" timeLoss="86.62" rerouteNo="0" devices="tripinfo_L4-CV-2 emissions_L4-CV-2 ssm_L4-CV-2 toc_L4-CV-2 driverstateL4-CV-2" vType="L4-CV-89" speedFactor="0.98" vaporized="">
        <emissions CO_abs="14822.089606" CO2_abs="436202.206398" HC_abs="74.832513" PMx_abs="8.063853" NOx_abs="176.286940" fuel_abs="187.510990" electricity_abs="0"/>
    </tripinfo>
    <tripinfo id="L2-AV-4" depart="134.00" departLane="left-long-approaching_0" departPos="5.10" departSpeed="0.00" departDelay="0.00" arrival="282.50" arrivalLane="bottom-exit_0" arrivalPos="486.40" arrivalSpeed="16.55" duration="148.50" routeLength="979.53" waitingTime="74.40" waitingCount="1" stopTime="0.00" timeLoss="88.29" rerouteNo="0" devices="tripinfo_L2-AV-4 emissions_L2-AV-4 ssm_L2-AV-4 toc_L2-AV-4 driverstateL2-AV-4" vType="L2-AV-Right-30" speedFactor="0.99" vaporized="">
        <emissions CO_abs="14936.089602" CO2_abs="440120.843832" HC_abs="75.634115" PMx_abs="8.164807" NOx_abs="178.119559" fuel_abs="189.195469" electricity_abs="0"/>
    </tripinfo>
    <tripinfo id="L2-AV-8" depart="148.00" departLane="right-approaching_0" departPos="5.10" departSpeed="0.00" departDelay="0.00" arrival="284.80" arrivalLane="top-exit_0" arrivalPos="486.40" arrivalSpeed="15.67" duration="136.80" routeLength="979.43" waitingTime="0.00" waitingCount="0" stopTime="0.00" timeLoss="73.26" rerouteNo="0" devices="tripinfo_L2-AV-8 emissions_L2-AV-8 ssm_L2-AV-8 toc_L2-AV-8 driverstateL2-AV-8" vType="L2-AV-84" speedFactor="0.94" vaporized="">
        <emissions CO_abs="2470.278981" CO2_abs="228345.207889" HC_abs="14.082552" PMx_abs="2.923084" NOx_abs="82.237721" fuel_abs="98.156598" electricity_abs="0"/>
    </tripinfo>
    <tripinfo id="L2-CV-10" depart="155.00" departLane="left-long-approaching_0" departPos="5.10" departSpeed="0.00" departDelay="0.00" arrival="286.00" arrivalLane="bottom-exit_0" arrivalPos="486.40" arrivalSpeed="15.36" duration="131.00" routeLength="979.53" waitingTime="50.30" waitingCount="1" stopTime="0.00" timeLoss="66.33" rerouteNo="0" devices="tripinfo_L2-CV-10 emissions_L2-CV-10 ssm_L2-CV-10 toc_L2-CV-10 driverstateL2-CV-10" vType="L2-CV-Right-44" speedFactor="0.92" vaporized="">
        <emissions CO_abs="8933.017923" CO2_abs="342675.458445" HC_abs="46.290933" PMx_abs="5.525319" NOx_abs="132.817415" fuel_abs="147.305435" electricity_abs="0"/>
    </tripinfo>
    <tripinfo id="L2-AV-14" depart="169.10" departLane="right-approaching_0" departPos="5.10" departSpeed="0.00" departDelay="0.10" arrival="286.50" arrivalLane="top-exit_1" arrivalPos="486.40" arrivalSpeed="17.19" duration="117.40" routeLength="979.43" waitingTime="0.00" waitingCount="0" stopTime="0.00" timeLoss="59.52" rerouteNo="0" devices="tripinfo_L2-AV-14 emissions_L2-AV-14 ssm_L2-AV-14 toc_L2-AV-14 driverstateL2-AV-14" vType="L2-AV-1" speedFactor="1.03" vaporized="">
        <emissions CO_abs="3228.719132" CO2_abs="212838.075366" HC_abs="18.729289" PMx_abs="3.283634" NOx_abs="81.651573" fuel_abs="91.490738" electricity_abs="0"/>
    </tripinfo>
    <tripinfo id="L2-AV-15" depart="173.00" departLane="right-approaching_0" departPos="5.10" departSpeed="0.00" departDelay="0.50" arrival="287.50" arrivalLane="top-exit_1" arrivalPos="486.40" arrivalSpeed="18.06" duration="114.50" routeLength="979.43" waitingTime="0.00" waitingCount="0" stopTime="0.00" timeLoss="59.38" rerouteNo="0" devices="tripinfo_L2-AV-15 emissions_L2-AV-15 ssm_L2-AV-15 toc_L2-AV-15 driverstateL2-AV-15" vType="L2-AV-98" speedFactor="1.08" vaporized="">
        <emissions CO_abs="3372.111763" CO2_abs="212187.328037" HC_abs="19.824631" PMx_abs="3.499477" NOx_abs="83.289110" fuel_abs="91.210829" electricity_abs="0"/>
    </tripinfo>
    <tripinfo id="L4-CV-6" depart="162.00" departLane="left-long-approaching_0" departPos="5.10" departSpeed="0.00" departDelay="0.00" arrival="287.60" arrivalLane="bottom-exit_0" arrivalPos="486.40" arrivalSpeed="15.61" duration="125.60" routeLength="979.53" waitingTime="43.10" waitingCount="25" stopTime="0.00" timeLoss="61.93" rerouteNo="0" devices="tripinfo_L4-CV-6 emissions_L4-CV-6 ssm_L4-CV-6 toc_L4-CV-6 driverstateL4-CV-6" vType="L4-CV-Right-81" speedFactor="0.94" vaporized="">
        <emissions CO_abs="8082.201765" CO2_abs="330996.242786" HC_abs="42.098703" PMx_abs="5.249682" NOx_abs="127.479154" fuel_abs="142.284573" electricity_abs="0"/>
    </tripinfo>
    <tripinfo id="L2-CV-15" depart="174.90" departLane="left-long-approaching_0" departPos="5.10" departSpeed="0.00" departDelay="2.40" arrival="289.30" arrivalLane="right-exit_0" arrivalPos="486.40" arrivalSpeed="17.75" duration="114.40" routeLength="995.23" waitingTime="30.10" waitingCount="31" stopTime="0.00" timeLoss="58.48" rerouteNo="0" devices="tripinfo_L2-CV-15 emissions_L2-CV-15 ssm_L2-CV-15 toc_L2-CV-15 driverstateL2-CV-15" vType="L2-CV-47@L2-CV-15" speedFactor="1.07" vaporized="">
        <emissions CO_abs="6639.782498" CO2_abs="318459.507527" HC_abs="35.712988" PMx_abs="5.197386" NOx_abs="122.543881" fuel_abs="136.894407" electricity_abs="0"/>
    </tripinfo>
    <tripinfo id="L2-AV-12" depart="165.00" departLane="left-long-approaching_0" departPos="5.10" departSpeed="0.00" departDelay="3.00" arrival="290.50" arrivalLane="bottom-exit_0" arrivalPos="486.40" arrivalSpeed="15.32" duration="125.50" routeLength="979.53" waitingTime="0.00" waitingCount="0" stopTime="0.00" timeLoss="60.43" rerouteNo="0" devices="tripinfo_L2-AV-12 emissions_L2-AV-12 ssm_L2-AV-12 toc_L2-AV-12 driverstateL2-AV-12" vType="L2-AV-Right-81" speedFactor="0.92" vaporized="">
        <emissions CO_abs="3136.887947" CO2_abs="251704.837817" HC_abs="17.829249" PMx_abs="3.388771" NOx_abs="92.593232" fuel_abs="108.198070" electricity_abs="0"/>
    </tripinfo>
    <tripinfo id="L4-AV-9" depart="183.00" departLane="right-approaching_0" departPos="5.10" departSpeed="0.00" departDelay="0.00" arrival="291.80" arrivalLane="top-exit_0" arrivalPos="486.40" arrivalSpeed="16.95" duration="108.80" routeLength="979.43" waitingTime="0.10" waitingCount="1" stopTime="0.00" timeLoss="50.06" rerouteNo="0" devices="tripinfo_L4-AV-9 emissions_L4-AV-9 ssm_L4-AV-9 toc_L4-AV-9 driverstateL4-AV-9" vType="L4-AV-59" speedFactor="1.02" vaporized="">
        <emissions CO_abs="3457.797048" CO2_abs="245955.638263" HC_abs="19.881070" PMx_abs="3.505856" NOx_abs="91.795911" fuel_abs="105.726864" electricity_abs="0"/>
    </tripinfo>
    <tripinfo id="L2-CV-25" depart="209.10" departLane="right-approaching_0" departPos="5.10" departSpeed="0.00" departDelay="1.60" arrival="292.40" arrivalLane="top-exit_1" arrivalPos="486.40" arrivalSpeed="19.62" duration="83.30" routeLength="979.43" waitingTime="0.00" waitingCount="0" stopTime="0.00" timeLoss="32.59" rerouteNo="0" devices="tripinfo_L2-CV-25 emissions_L2-CV-25 ssm_L2-CV-25 toc_L2-CV-25 driverstateL2-CV-25" vType="L2-CV-30" speedFactor="1.18" vaporized="">
        <emissions CO_abs="3692.137973" CO2_abs="279888.229524" HC_abs="22.276699" PMx_abs="4.465502" NOx_abs="105.972128" fuel_abs="120.312533" electricity_abs="0"/>
    </tripinfo>
    <tripinfo id="L4-AV-10" depart="190.00" departLane="right-approaching_0" departPos="5.10" departSpeed="0.00" departDelay="0.00" arrival="293.80" arrivalLane="top-exit_0" arrivalPos="486.40" arrivalSpeed="16.72" duration="103.80" routeLength="979.43" waitingTime="0.00" waitingCount="0" stopTime="0.00" timeLoss="44.28" rerouteNo="0" devices="tripinfo_L4-AV-10 emissions_L4-AV-10 ssm_L4-AV-10 toc_L4-AV-10 driverstateL4-AV-10" vType="L4-AV-64" speedFactor="1.00" vaporized="">
        <emissions CO_abs="3171.137801" CO2_abs="228869.300331" HC_abs="17.911328" PMx_abs="3.310014" NOx_abs="85.565573" fuel_abs="98.381933" electricity_abs="0"/>
    </tripinfo>
    <tripinfo id="L4-AV-14" depart="218.00" departLane="left-long-approaching_0" departPos="5.10" departSpeed="0.00" departDelay="0.00" arrival="296.80" arrivalLane="bottom-exit_0" arrivalPos="486.40" arrivalSpeed="17.06" duration="78.80" routeLength="979.53" waitingTime="0.00" waitingCount="0" stopTime="0.00" timeLoss="20.45" rerouteNo="0" devices="tripinfo_L4-AV-14 emissions_L4-AV-14 ssm_L4-AV-14 toc_L4-AV-14 driverstateL4-AV-14" vType="L4-AV-Right-0" speedFactor="1.02" vaporized="">
        <emissions CO_abs="2955.784826" CO2_abs="260956.552779" HC_abs="17.938586" PMx_abs="3.584435" NOx_abs="96.255772" fuel_abs="112.174825" electricity_abs="0"/>
    </tripinfo>
    <tripinfo id="L2-AV-25" depart="212.50" departLane="right-approaching_0" departPos="5.10" departSpeed="0.00" departDelay="5.00" arrival="298.60" arrivalLane="top-exit_1" arrivalPos="486.40" arrivalSpeed="18.27" duration="86.10" routeLength="979.43" waitingTime="0.00" waitingCount="0" stopTime="0.00" timeLoss="31.56" rerouteNo="0" devices="tripinfo_L2-AV-25 emissions_L2-AV-25 ssm_L2-AV-25 toc_L2-AV-25 driverstateL2-AV-25" vType="L2-AV-22" speedFactor="1.10" vaporized="">
        <emissions CO_abs="3706.854833" CO2_abs="249376.339994" HC_abs="21.191073" PMx_abs="3.907215" NOx_abs="95.156891" fuel_abs="107.196960" electricity_abs="0"/>
    </tripinfo>
    <tripinfo id="L4-AV-15" depart="225.00" departLane="left-long-approaching_0" departPos="5.10" departSpeed="0.00" departDelay="0.00" arrival="300.00" arrivalLane="bottom-exit_0" arrivalPos="486.40" arrivalSpeed="18.04" duration="75.00" routeLength="979.53" waitingTime="0.00" waitingCount="0" stopTime="0.00" timeLoss="19.80" rerouteNo="0" devices="tripinfo_L4-AV-15 emissions_L4-AV-15 ssm_L4-AV-15 toc_L4-AV-15 driverstateL4-AV-15" vType="L4-AV-Right-48" speedFactor="1.08" vaporized="">
        <emissions CO_abs="2865.795406" CO2_abs="253443.734316" HC_abs="17.225246" PMx_abs="3.726010" NOx_abs="94.564567" fuel_abs="108.944996" electricity_abs="0"/>
    </tripinfo>
    <tripinfo id="L2-AV-16" depart="178.40" departLane="left-long-approaching_0" departPos="5.10" departSpeed="0.00" departDelay="2.40" arrival="300.60" arrivalLane="top-exit_1" arrivalPos="486.40" arrivalSpeed="17.75" duration="122.20" routeLength="992.31" waitingTime="51.40" waitingCount="2" stopTime="0.00" timeLoss="65.38" rerouteNo="0" devices="tripinfo_L2-AV-16 emissions_L2-AV-16 ssm_L2-AV-16 toc_L2-AV-16 driverstateL2-AV-16" vType="L2-AV-Left-3" speedFactor="1.06" vaporized="">
        <emissions CO_abs="11367.037205" CO2_abs="392451.036694" HC_abs="58.346703" PMx_abs="7.194846" NOx_abs="156.824583" fuel_abs="168.702137" electricity_abs="0"/>
    </tripinfo>
    <tripinfo id="L0-HDV-10" depart="230.00" departLane="left-long-approaching_0" departPos="5.10" departSpeed="0.00" departDelay="0.00" arrival="300.80" arrivalLane="bottom-exit_1" arrivalPos="486.40" arrivalSpeed="18.64" duration="70.80" routeLength="979.53" waitingTime="0.00" waitingCount="0" stopTime="0.00" timeLoss="17.42" rerouteNo="0" devices="tripinfo_L0-HDV-10 emissions_L0-HDV-10 ssm_L0-HDV-10" vType="L0-HDV-6" speedFactor="1.12" vaporized="">
        <emissions CO_abs="2783.996567" CO2_abs="215468.243072" HC_abs="17.174738" PMx_abs="3.624737" NOx_abs="84.319974" fuel_abs="92.620565" electricity_abs="0"/>
    </tripinfo>