<?xml version="1.0" encoding="UTF-8"?>

<!-- generated on 03/29/21 20:09:53 by Eclipse SUMO GUI Version 1.8.0
<configuration xmlns:xsi="http://www.w3.org/2001/XMLSchema-instance" xsi:noNamespaceSchemaLocation="http://sumo.dlr.de/xsd/sumoConfiguration.xsd">

    <input>
        <net-file value="Collision\RealTMSPenetration3\../CollisionIntersection.net.xml"/>
        <route-files value="Collision\RealTMSPenetration3\../CrashedVehicleRoutes.rou.xml,Collision\RealTMSPenetration3\Route-Files/L4-CV-Route.rou.xml,Collision\RealTMSPenetration3\Route-Files/L4-AV-Route.rou.xml,Collision\RealTMSPenetration3\Route-Files/L2-CV-Route.rou.xml,Collision\RealTMSPenetration3\Route-Files/L2-AV-Route.rou.xml,Collision\RealTMSPenetration3\Route-Files/L0-HDV-Route.rou.xml"/>
        <additional-files value="Collision\RealTMSPenetration3\../Additional-Files/Collision-Detectors.add.xml,Collision\RealTMSPenetration3\../Additional-Files/Collision-TMS-Rerouters.add.xml,Collision\RealTMSPenetration3\PreparingVehicleModels/Vehicle-Models/L4-CV.add.xml,Collision\RealTMSPenetration3\PreparingVehicleModels/Vehicle-Models/L4-CV-Left.add.xml,Collision\RealTMSPenetration3\PreparingVehicleModels/Vehicle-Models/L4-CV-Right.add.xml,Collision\RealTMSPenetration3\PreparingVehicleModels/Vehicle-Models/L4-AV.add.xml,Collision\RealTMSPenetration3\PreparingVehicleModels/Vehicle-Models/L4-AV-Left.add.xml,Collision\RealTMSPenetration3\PreparingVehicleModels/Vehicle-Models/L4-AV-Right.add.xml,Collision\RealTMSPenetration3\PreparingVehicleModels/Vehicle-Models/L2-CV.add.xml,Collision\RealTMSPenetration3\PreparingVehicleModels/Vehicle-Models/L2-CV-Left.add.xml,Collision\RealTMSPenetration3\PreparingVehicleModels/Vehicle-Models/L2-CV-Right.add.xml,Collision\RealTMSPenetration3\PreparingVehicleModels/Vehicle-Models/L2-AV.add.xml,Collision\RealTMSPenetration3\PreparingVehicleModels/Vehicle-Models/L2-AV-Left.add.xml,Collision\RealTMSPenetration3\PreparingVehicleModels/Vehicle-Models/L2-AV-Right.add.xml,Collision\RealTMSPenetration3\PreparingVehicleModels/Vehicle-Models/L0-HDV.add.xml,Collision\RealTMSPenetration3\PreparingVehicleModels/Vehicle-Models/L0-HDV-Left.add.xml,Collision\RealTMSPenetration3\PreparingVehicleModels/Vehicle-Models/L0-HDV-Straight.add.xml,Collision\RealTMSPenetration3\../Additional-Files/Collision-Traffic-lights.add.xml,Collision\RealTMSPenetration3\../Additional-Files/Collision-Traffic-Signs.add.xml"/>
    </input>

    <output>
        <tripinfo-output value="Collision\RealTMSPenetration3\Output-Files\TripInfo.xml"/>
    </output>

    <time>
        <begin value="0"/>
        <step-length value="0.1"/>
    </time>

    <processing>
        <ignore-route-errors value="true"/>
        <waiting-time-memory value="300"/>
        <default.action-step-length value="0.1"/>
    </processing>

    <report>
        <no-warnings value="true"/>
    </report>

    <emissions>
        <device.emissions.probability value="1"/>
    </emissions>

    <traci_server>
        <remote-port value="51949"/>
    </traci_server>

    <gui_only>
        <quit-on-end value="true"/>
        <start value="true"/>
        <tracker-interval value="0.1"/>
    </gui_only>

</configuration>
-->

<tripinfos xmlns:xsi="http://www.w3.org/2001/XMLSchema-instance" xsi:noNamespaceSchemaLocation="http://sumo.dlr.de/xsd/tripinfo_file.xsd">
    <tripinfo id="L0-HDV-1" depart="133.60" departLane="left-long-approaching_0" departPos="5.10" departSpeed="0.00" departDelay="2.60" arrival="191.30" arrivalLane="right-exit_1" arrivalPos="486.40" arrivalSpeed="18.65" duration="57.70" routeLength="995.23" waitingTime="0.00" waitingCount="0" stopTime="0.00" timeLoss="4.66" rerouteNo="0" devices="tripinfo_L0-HDV-1 emissions_L0-HDV-1 ssm_L0-HDV-1" vType="L0-HDV-Straight-51" speedFactor="1.13" vaporized="">
        <emissions CO_abs="2404.998749" CO2_abs="209226.656340" HC_abs="15.875939" PMx_abs="3.861817" NOx_abs="83.365399" fuel_abs="89.936961" electricity_abs="0"/>
    </tripinfo>
    <tripinfo id="L2-AV-1" depart="123.50" departLane="left-long-approaching_0" departPos="5.10" departSpeed="0.00" departDelay="0.00" arrival="191.40" arrivalLane="right-exit_0" arrivalPos="486.40" arrivalSpeed="15.67" duration="67.90" routeLength="995.23" waitingTime="0.00" waitingCount="0" stopTime="0.00" timeLoss="4.28" rerouteNo="0" devices="tripinfo_L2-AV-1 emissions_L2-AV-1 ssm_L2-AV-1 toc_L2-AV-1 driverstateL2-AV-1" vType="L2-AV-84" speedFactor="0.94" vaporized="">
        <emissions CO_abs="1114.409019" CO2_abs="201121.525761" HC_abs="6.478104" PMx_abs="1.941885" NOx_abs="66.484859" fuel_abs="86.454269" electricity_abs="0"/>
    </tripinfo>
    <tripinfo id="L0-HDV-2" depart="144.90" departLane="right-approaching_0" departPos="5.10" departSpeed="0.00" departDelay="2.90" arrival="199.10" arrivalLane="bottom-exit_1" arrivalPos="486.40" arrivalSpeed="20.59" duration="54.20" routeLength="992.21" waitingTime="0.00" waitingCount="0" stopTime="0.00" timeLoss="5.18" rerouteNo="0" devices="tripinfo_L0-HDV-2 emissions_L0-HDV-2 ssm_L0-HDV-2" vType="L0-HDV-97" speedFactor="1.24" vaporized="">
        <emissions CO_abs="2181.585687" CO2_abs="194969.719604" HC_abs="14.180466" PMx_abs="3.544087" NOx_abs="76.032451" fuel_abs="83.808658" electricity_abs="0"/>
    </tripinfo>
    <tripinfo id="L2-AV-2" depart="127.00" departLane="right-approaching_0" departPos="5.10" departSpeed="0.00" departDelay="0.00" arrival="200.60" arrivalLane="bottom-exit_0" arrivalPos="486.40" arrivalSpeed="14.94" duration="73.60" routeLength="992.21" waitingTime="0.00" waitingCount="0" stopTime="0.00" timeLoss="6.06" rerouteNo="0" devices="tripinfo_L2-AV-2 emissions_L2-AV-2 ssm_L2-AV-2 toc_L2-AV-2 driverstateL2-AV-2" vType="L2-AV-64" speedFactor="0.90" vaporized="">
        <emissions CO_abs="1733.578288" CO2_abs="224252.885672" HC_abs="10.482676" PMx_abs="2.492207" NOx_abs="78.066987" fuel_abs="96.397455" electricity_abs="0"/>
    </tripinfo>
    <tripinfo id="L2-CV-3" depart="130.50" departLane="left-long-approaching_0" departPos="5.10" departSpeed="0.00" departDelay="0.00" arrival="205.30" arrivalLane="top-exit_0" arrivalPos="486.40" arrivalSpeed="14.87" duration="74.80" routeLength="997.47" waitingTime="0.00" waitingCount="0" stopTime="0.00" timeLoss="6.72" rerouteNo="0" devices="tripinfo_L2-CV-3 emissions_L2-CV-3 ssm_L2-CV-3 toc_L2-CV-3 driverstateL2-CV-3" vType="L2-CV-Left-23@L2-CV-3" speedFactor="0.89" vaporized="">
        <emissions CO_abs="1746.232493" CO2_abs="225774.347357" HC_abs="10.832731" PMx_abs="2.498698" NOx_abs="78.693813" fuel_abs="97.051524" electricity_abs="0"/>
    </tripinfo>
    <tripinfo id="L2-CV-5" depart="139.70" departLane="left-long-approaching_0" departPos="5.10" departSpeed="0.00" departDelay="2.20" arrival="205.60" arrivalLane="top-exit_1" arrivalPos="486.40" arrivalSpeed="17.62" duration="65.90" routeLength="997.47" waitingTime="0.00" waitingCount="0" stopTime="0.00" timeLoss="8.40" rerouteNo="0" devices="tripinfo_L2-CV-5 emissions_L2-CV-5 ssm_L2-CV-5 toc_L2-CV-5 driverstateL2-CV-5" vType="L2-CV-Left-30@L2-CV-5" speedFactor="1.06" vaporized="">
        <emissions CO_abs="1838.861844" CO2_abs="212290.141201" HC_abs="11.219485" PMx_abs="2.848737" NOx_abs="75.927633" fuel_abs="91.254738" electricity_abs="0"/>
    </tripinfo>
    <tripinfo id="L2-CV-4" depart="134.00" departLane="left-long-approaching_0" departPos="5.10" departSpeed="0.00" departDelay="0.00" arrival="206.60" arrivalLane="top-exit_0" arrivalPos="486.40" arrivalSpeed="15.36" duration="72.60" routeLength="997.47" waitingTime="0.00" waitingCount="0" stopTime="0.00" timeLoss="6.67" rerouteNo="0" devices="tripinfo_L2-CV-4 emissions_L2-CV-4 ssm_L2-CV-4 toc_L2-CV-4 driverstateL2-CV-4" vType="L2-CV-Left-44@L2-CV-4" speedFactor="0.92" vaporized="">
        <emissions CO_abs="1666.804539" CO2_abs="177813.252365" HC_abs="10.299476" PMx_abs="2.335157" NOx_abs="64.794764" fuel_abs="76.434648" electricity_abs="0"/>
    </tripinfo>
    <tripinfo id="L2-AV-7" depart="145.00" departLane="right-approaching_0" departPos="5.10" departSpeed="0.00" departDelay="0.50" arrival="208.40" arrivalLane="bottom-exit_0" arrivalPos="486.40" arrivalSpeed="18.06" duration="63.40" routeLength="992.21" waitingTime="0.00" waitingCount="0" stopTime="0.00" timeLoss="7.51" rerouteNo="0" devices="tripinfo_L2-AV-7 emissions_L2-AV-7 ssm_L2-AV-7 toc_L2-AV-7 driverstateL2-AV-7" vType="L2-AV-98" speedFactor="1.08" vaporized="">
        <emissions CO_abs="2134.987117" CO2_abs="198376.373905" HC_abs="12.850762" PMx_abs="3.122135" NOx_abs="74.852199" fuel_abs="85.273420" electricity_abs="0"/>
    </tripinfo>
    <tripinfo id="L4-AV-4" depart="148.00" departLane="left-long-approaching_0" departPos="5.10" departSpeed="0.00" departDelay="0.00" arrival="218.40" arrivalLane="top-exit_1" arrivalPos="486.40" arrivalSpeed="16.95" duration="70.40" routeLength="992.31" waitingTime="0.00" waitingCount="0" stopTime="0.00" timeLoss="10.91" rerouteNo="0" devices="tripinfo_L4-AV-4 emissions_L4-AV-4 ssm_L4-AV-4 toc_L4-AV-4 driverstateL4-AV-4" vType="L4-AV-Left-59" speedFactor="1.02" vaporized="">
        <emissions CO_abs="1948.642203" CO2_abs="200511.631953" HC_abs="11.949997" PMx_abs="2.672301" NOx_abs="72.605152" fuel_abs="86.191823" electricity_abs="0"/>
    </tripinfo>
    <tripinfo id="L4-AV-3" depart="143.10" departLane="left-long-approaching_0" departPos="5.10" departSpeed="0.00" departDelay="2.10" arrival="219.10" arrivalLane="top-exit_0" arrivalPos="486.40" arrivalSpeed="14.25" duration="76.00" routeLength="992.31" waitingTime="0.00" waitingCount="0" stopTime="0.00" timeLoss="5.22" rerouteNo="0" devices="tripinfo_L4-AV-3 emissions_L4-AV-3 ssm_L4-AV-3 toc_L4-AV-3 driverstateL4-AV-3" vType="L4-AV-Left-58" speedFactor="0.85" vaporized="">
        <emissions CO_abs="1490.259812" CO2_abs="216014.497286" HC_abs="9.636525" PMx_abs="2.144259" NOx_abs="73.818222" fuel_abs="92.856383" electricity_abs="0"/>
    </tripinfo>
    <tripinfo id="L2-AV-10" depart="155.00" departLane="right-approaching_0" departPos="5.10" departSpeed="0.00" departDelay="0.00" arrival="222.50" arrivalLane="bottom-exit_1" arrivalPos="486.40" arrivalSpeed="18.33" duration="67.50" routeLength="992.21" waitingTime="0.00" waitingCount="0" stopTime="0.00" timeLoss="12.43" rerouteNo="0" devices="tripinfo_L2-AV-10 emissions_L2-AV-10 ssm_L2-AV-10 toc_L2-AV-10 driverstateL2-AV-10" vType="L2-AV-15" speedFactor="1.10" vaporized="">
        <emissions CO_abs="1841.803103" CO2_abs="227205.963020" HC_abs="11.678486" PMx_abs="2.954774" NOx_abs="80.654028" fuel_abs="97.666516" electricity_abs="0"/>
    </tripinfo>
    <tripinfo id="L2-AV-0" depart="123.60" departLane="bottom-approaching_0" departPos="5.10" departSpeed="0.00" departDelay="3.60" arrival="240.30" arrivalLane="right-exit_0" arrivalPos="486.40" arrivalSpeed="16.59" duration="116.70" routeLength="979.43" waitingTime="42.10" waitingCount="1" stopTime="0.00" timeLoss="56.72" rerouteNo="0" devices="tripinfo_L2-AV-0 emissions_L2-AV-0 ssm_L2-AV-0 toc_L2-AV-0 driverstateL2-AV-0" vType="L2-AV-56" speedFactor="1.00" vaporized="">
        <emissions CO_abs="9628.325669" CO2_abs="354049.864517" HC_abs="49.493914" PMx_abs="6.038213" NOx_abs="138.920172" fuel_abs="152.194771" electricity_abs="0"/>
    </tripinfo>
    <tripinfo id="L0-HDV-0" depart="127.00" departLane="bottom-approaching_0" departPos="5.10" departSpeed="0.00" departDelay="7.00" arrival="240.70" arrivalLane="right-exit_1" arrivalPos="486.40" arrivalSpeed="17.26" duration="113.70" routeLength="979.43" waitingTime="40.10" waitingCount="1" stopTime="0.00" timeLoss="56.32" rerouteNo="0" devices="tripinfo_L0-HDV-0 emissions_L0-HDV-0 ssm_L0-HDV-0" vType="L0-HDV-32" speedFactor="1.04" vaporized="">
        <emissions CO_abs="10141.646742" CO2_abs="347182.127903" HC_abs="54.302976" PMx_abs="6.998143" NOx_abs="145.785965" fuel_abs="149.241700" electricity_abs="0"/>
    </tripinfo>
    <tripinfo id="L2-AV-3" depart="137.50" departLane="bottom-approaching_0" departPos="5.10" departSpeed="0.00" departDelay="7.00" arrival="241.70" arrivalLane="top-exit_1" arrivalPos="486.40" arrivalSpeed="19.04" duration="104.20" routeLength="994.90" waitingTime="0.00" waitingCount="0" stopTime="0.00" timeLoss="51.82" rerouteNo="0" devices="tripinfo_L2-AV-3 emissions_L2-AV-3 ssm_L2-AV-3 toc_L2-AV-3 driverstateL2-AV-3" vType="L2-AV-57" speedFactor="1.14" vaporized="">
        <emissions CO_abs="2943.418766" CO2_abs="250520.866965" HC_abs="17.636099" PMx_abs="3.680783" NOx_abs="92.834545" fuel_abs="107.688757" electricity_abs="0"/>
    </tripinfo>
    <tripinfo id="L2-CV-2" depart="130.10" departLane="bottom-approaching_0" departPos="5.10" departSpeed="0.00" departDelay="3.10" arrival="242.10" arrivalLane="right-exit_0" arrivalPos="486.40" arrivalSpeed="18.78" duration="112.00" routeLength="979.43" waitingTime="33.40" waitingCount="1" stopTime="0.00" timeLoss="62.34" rerouteNo="0" devices="tripinfo_L2-CV-2 emissions_L2-CV-2 ssm_L2-CV-2 toc_L2-CV-2 driverstateL2-CV-2" vType="L2-CV-0" speedFactor="1.20" vaporized="">
        <emissions CO_abs="7765.878531" CO2_abs="341628.005538" HC_abs="42.989852" PMx_abs="6.241633" NOx_abs="136.523137" fuel_abs="146.853486" electricity_abs="0"/>
    </tripinfo>
    <tripinfo id="L4-CV-0" depart="120.00" departLane="bottom-approaching_0" departPos="5.10" departSpeed="0.00" departDelay="0.00" arrival="242.70" arrivalLane="top-exit_0" arrivalPos="486.40" arrivalSpeed="16.26" duration="122.70" routeLength="994.90" waitingTime="44.40" waitingCount="1" stopTime="0.00" timeLoss="61.43" rerouteNo="0" devices="tripinfo_L4-CV-0 emissions_L4-CV-0 ssm_L4-CV-0 toc_L4-CV-0 driverstateL4-CV-0" vType="L4-CV-89" speedFactor="0.98" vaporized="">
        <emissions CO_abs="10102.754252" CO2_abs="363215.661988" HC_abs="51.955601" PMx_abs="6.149808" NOx_abs="142.618874" fuel_abs="156.135116" electricity_abs="0"/>
    </tripinfo>
    <tripinfo id="L4-CV-1" depart="134.00" departLane="bottom-approaching_0" departPos="5.10" departSpeed="0.00" departDelay="7.00" arrival="243.70" arrivalLane="right-exit_0" arrivalPos="486.40" arrivalSpeed="18.72" duration="109.70" routeLength="979.43" waitingTime="30.30" waitingCount="26" stopTime="0.00" timeLoss="56.66" rerouteNo="0" devices="tripinfo_L4-CV-1 emissions_L4-CV-1 ssm_L4-CV-1 toc_L4-CV-1 driverstateL4-CV-1" vType="L4-CV-15" speedFactor="1.12" vaporized="">
        <emissions CO_abs="6916.225291" CO2_abs="322339.077083" HC_abs="37.647965" PMx_abs="5.548377" NOx_abs="125.932591" fuel_abs="138.561926" electricity_abs="0"/>
    </tripinfo>
    <tripinfo id="L4-CV-3" depart="141.90" departLane="top-approaching_0" departPos="5.10" departSpeed="0.00" departDelay="0.90" arrival="246.10" arrivalLane="bottom-exit_0" arrivalPos="486.40" arrivalSpeed="14.64" duration="104.20" routeLength="994.90" waitingTime="18.80" waitingCount="1" stopTime="0.00" timeLoss="36.21" rerouteNo="0" devices="tripinfo_L4-CV-3 emissions_L4-CV-3 ssm_L4-CV-3 toc_L4-CV-3 driverstateL4-CV-3" vType="L4-CV-22" speedFactor="0.88" vaporized="">
        <emissions CO_abs="5806.751139" CO2_abs="290443.655789" HC_abs="31.220034" PMx_abs="4.074861" NOx_abs="108.709762" fuel_abs="124.852049" electricity_abs="0"/>
    </tripinfo>
    <tripinfo id="L0-HDV-3" depart="153.00" departLane="bottom-approaching_0" departPos="5.10" departSpeed="0.00" departDelay="0.00" arrival="247.50" arrivalLane="top-exit_0" arrivalPos="486.40" arrivalSpeed="15.53" duration="94.50" routeLength="994.90" waitingTime="0.00" waitingCount="0" stopTime="0.00" timeLoss="30.53" rerouteNo="0" devices="tripinfo_L0-HDV-3 emissions_L0-HDV-3 ssm_L0-HDV-3" vType="L0-HDV-50" speedFactor="0.93" vaporized="">
        <emissions CO_abs="3684.810064" CO2_abs="219228.827116" HC_abs="21.623772" PMx_abs="3.512646" NOx_abs="85.693267" fuel_abs="94.238034" electricity_abs="0"/>
    </tripinfo>
    <tripinfo id="L4-CV-6" depart="162.00" departLane="bottom-approaching_0" departPos="5.10" departSpeed="0.00" departDelay="0.00" arrival="249.00" arrivalLane="top-exit_0" arrivalPos="486.40" arrivalSpeed="16.97" duration="87.00" routeLength="994.90" waitingTime="0.00" waitingCount="0" stopTime="0.00" timeLoss="28.24" rerouteNo="0" devices="tripinfo_L4-CV-6 emissions_L4-CV-6 ssm_L4-CV-6 toc_L4-CV-6 driverstateL4-CV-6" vType="L4-CV-59" speedFactor="1.02" vaporized="">
        <emissions CO_abs="3159.330427" CO2_abs="230267.485486" HC_abs="18.409921" PMx_abs="3.356836" NOx_abs="86.453406" fuel_abs="98.982976" electricity_abs="0"/>
    </tripinfo>
    <tripinfo id="L2-CV-12" depart="165.50" departLane="bottom-approaching_0" departPos="5.10" departSpeed="0.00" departDelay="3.50" arrival="252.00" arrivalLane="top-exit_0" arrivalPos="486.40" arrivalSpeed="14.90" duration="86.50" routeLength="994.90" waitingTime="0.00" waitingCount="0" stopTime="0.00" timeLoss="19.61" rerouteNo="0" devices="tripinfo_L2-CV-12 emissions_L2-CV-12 ssm_L2-CV-12 toc_L2-CV-12 driverstateL2-CV-12" vType="L2-CV-15" speedFactor="0.89" vaporized="">
        <emissions CO_abs="3156.440637" CO2_abs="254488.538858" HC_abs="18.133326" PMx_abs="3.122755" NOx_abs="91.593539" fuel_abs="109.395175" electricity_abs="0"/>
    </tripinfo>
    <tripinfo id="L2-AV-18" depart="186.90" departLane="top-approaching_0" departPos="5.10" departSpeed="0.00" departDelay="3.90" arrival="253.10" arrivalLane="bottom-exit_0" arrivalPos="486.40" arrivalSpeed="17.80" duration="66.20" routeLength="994.90" waitingTime="0.00" waitingCount="0" stopTime="0.00" timeLoss="10.20" rerouteNo="0" devices="tripinfo_L2-AV-18 emissions_L2-AV-18 ssm_L2-AV-18 toc_L2-AV-18 driverstateL2-AV-18" vType="L2-AV-14" speedFactor="1.07" vaporized="">
        <emissions CO_abs="1421.287272" CO2_abs="212158.385186" HC_abs="8.533469" PMx_abs="2.366190" NOx_abs="71.839135" fuel_abs="91.198436" electricity_abs="0"/>
    </tripinfo>
    <tripinfo id="L2-CV-10" depart="155.70" departLane="top-approaching_0" departPos="5.10" departSpeed="0.00" departDelay="0.70" arrival="254.00" arrivalLane="right-exit_1" arrivalPos="486.40" arrivalSpeed="17.75" duration="98.30" routeLength="992.21" waitingTime="21.30" waitingCount="2" stopTime="0.00" timeLoss="41.45" rerouteNo="0" devices="tripinfo_L2-CV-10 emissions_L2-CV-10 ssm_L2-CV-10 toc_L2-CV-10 driverstateL2-CV-10" vType="L2-CV-47" speedFactor="1.07" vaporized="">
        <emissions CO_abs="6824.961210" CO2_abs="322608.123275" HC_abs="36.537926" PMx_abs="5.312307" NOx_abs="124.377109" fuel_abs="138.677751" electricity_abs="0"/>
    </tripinfo>
    <tripinfo id="L4-AV-2" depart="137.60" departLane="bottom-approaching_0" departPos="5.10" departSpeed="0.00" departDelay="3.60" arrival="254.30" arrivalLane="right-exit_0" arrivalPos="486.40" arrivalSpeed="13.99" duration="116.70" routeLength="979.43" waitingTime="0.00" waitingCount="0" stopTime="0.00" timeLoss="45.50" rerouteNo="0" devices="tripinfo_L4-AV-2 emissions_L4-AV-2 ssm_L4-AV-2 toc_L4-AV-2 driverstateL4-AV-2" vType="L4-AV-74" speedFactor="0.84" vaporized="">
        <emissions CO_abs="2804.392899" CO2_abs="230264.015108" HC_abs="16.498706" PMx_abs="2.755943" NOx_abs="83.066453" fuel_abs="98.982013" electricity_abs="0"/>
    </tripinfo>
    <tripinfo id="L2-CV-8" depart="148.00" departLane="bottom-approaching_0" departPos="5.10" departSpeed="0.00" departDelay="0.00" arrival="255.90" arrivalLane="right-exit_0" arrivalPos="486.40" arrivalSpeed="15.11" duration="107.90" routeLength="979.43" waitingTime="0.00" waitingCount="0" stopTime="0.00" timeLoss="42.02" rerouteNo="0" devices="tripinfo_L2-CV-8 emissions_L2-CV-8 ssm_L2-CV-8 toc_L2-CV-8 driverstateL2-CV-8" vType="L2-CV-3" speedFactor="0.91" vaporized="">
        <emissions CO_abs="2924.170100" CO2_abs="183667.766303" HC_abs="16.779613" PMx_abs="2.734181" NOx_abs="70.343377" fuel_abs="78.951786" electricity_abs="0"/>
    </tripinfo>
    <tripinfo id="L2-CV-17" depart="183.90" departLane="bottom-approaching_0" departPos="5.10" departSpeed="0.00" departDelay="4.40" arrival="258.10" arrivalLane="right-exit_1" arrivalPos="486.40" arrivalSpeed="18.31" duration="74.20" routeLength="979.43" waitingTime="0.00" waitingCount="0" stopTime="0.00" timeLoss="19.78" rerouteNo="0" devices="tripinfo_L2-CV-17 emissions_L2-CV-17 ssm_L2-CV-17 toc_L2-CV-17 driverstateL2-CV-17" vType="L2-CV-52" speedFactor="1.10" vaporized="">
        <emissions CO_abs="2391.920307" CO2_abs="234071.226592" HC_abs="15.336926" PMx_abs="3.322661" NOx_abs="86.644081" fuel_abs="100.617624" electricity_abs="0"/>
    </tripinfo>
    <tripinfo id="L4-AV-8" depart="179.80" departLane="bottom-approaching_0" departPos="5.10" departSpeed="0.00" departDelay="3.80" arrival="258.30" arrivalLane="right-exit_0" arrivalPos="486.40" arrivalSpeed="18.28" duration="78.50" routeLength="979.43" waitingTime="0.10" waitingCount="1" stopTime="0.00" timeLoss="26.21" rerouteNo="0" devices="tripinfo_L4-AV-8 emissions_L4-AV-8 ssm_L4-AV-8 toc_L4-AV-8 driverstateL4-AV-8" vType="L4-AV-34" speedFactor="1.14" vaporized="">
        <emissions CO_abs="2970.180691" CO2_abs="218858.177480" HC_abs="18.210155" PMx_abs="3.417677" NOx_abs="84.821419" fuel_abs="94.078221" electricity_abs="0"/>
    </tripinfo>
    <tripinfo id="L2-AV-11" depart="162.00" departLane="top-approaching_0" departPos="5.10" departSpeed="0.00" departDelay="3.50" arrival="263.10" arrivalLane="right-exit_0" arrivalPos="486.40" arrivalSpeed="17.11" duration="101.10" routeLength="992.21" waitingTime="0.00" waitingCount="0" stopTime="0.00" timeLoss="42.14" rerouteNo="0" devices="tripinfo_L2-AV-11 emissions_L2-AV-11 ssm_L2-AV-11 toc_L2-AV-11 driverstateL2-AV-11" vType="L2-AV-15" speedFactor="1.03" vaporized="">
        <emissions CO_abs="3976.284924" CO2_abs="265808.351909" HC_abs="22.262478" PMx_abs="3.954584" NOx_abs="100.031174" fuel_abs="114.260693" electricity_abs="0"/>
    </tripinfo>
    <tripinfo id="L2-CV-19" depart="189.50" departLane="top-approaching_0" departPos="5.10" departSpeed="0.00" departDelay="3.00" arrival="264.50" arrivalLane="right-exit_1" arrivalPos="486.40" arrivalSpeed="19.62" duration="75.00" routeLength="992.21" waitingTime="0.00" waitingCount="0" stopTime="0.00" timeLoss="23.63" rerouteNo="0" devices="tripinfo_L2-CV-19 emissions_L2-CV-19 ssm_L2-CV-19 toc_L2-CV-19 driverstateL2-CV-19" vType="L2-CV-30" speedFactor="1.18" vaporized="">
        <emissions CO_abs="3484.267795" CO2_abs="277618.079354" HC_abs="21.506455" PMx_abs="4.431586" NOx_abs="105.050163" fuel_abs="119.336580" electricity_abs="0"/>
    </tripinfo>
    <tripinfo id="L2-CV-16" depart="178.40" departLane="top-approaching_0" departPos="5.10" departSpeed="0.00" departDelay="2.40" arrival="267.00" arrivalLane="right-exit_0" arrivalPos="486.40" arrivalSpeed="15.47" duration="88.60" routeLength="992.21" waitingTime="0.00" waitingCount="0" stopTime="0.00" timeLoss="23.39" rerouteNo="0" devices="tripinfo_L2-CV-16 emissions_L2-CV-16 ssm_L2-CV-16 toc_L2-CV-16 driverstateL2-CV-16" vType="L2-CV-57" speedFactor="0.93" vaporized="">
        <emissions CO_abs="3119.289392" CO2_abs="253666.577884" HC_abs="17.864323" PMx_abs="3.244436" NOx_abs="91.952217" fuel_abs="109.041619" electricity_abs="0"/>
    </tripinfo>
    <tripinfo id="L4-AV-10" depart="192.90" departLane="top-approaching_0" departPos="5.10" departSpeed="0.00" departDelay="2.90" arrival="269.70" arrivalLane="right-exit_1" arrivalPos="486.40" arrivalSpeed="18.04" duration="76.80" routeLength="992.21" waitingTime="0.10" waitingCount="1" stopTime="0.00" timeLoss="20.90" rerouteNo="0" devices="tripinfo_L4-AV-10 emissions_L4-AV-10 ssm_L4-AV-10 toc_L4-AV-10 driverstateL4-AV-10" vType="L4-AV-48" speedFactor="1.08" vaporized="">
        <emissions CO_abs="2708.302859" CO2_abs="249029.580302" HC_abs="16.368329" PMx_abs="3.409779" NOx_abs="90.883755" fuel_abs="107.047862" electricity_abs="0"/>
    </tripinfo>
    <tripinfo id="L2-CV-25" depart="207.50" departLane="top-approaching_0" departPos="5.10" departSpeed="0.00" departDelay="0.00" arrival="273.30" arrivalLane="right-exit_0" arrivalPos="486.40" arrivalSpeed="17.19" duration="65.80" routeLength="992.21" waitingTime="0.00" waitingCount="0" stopTime="0.00" timeLoss="7.18" rerouteNo="0" devices="tripinfo_L2-CV-25 emissions_L2-CV-25 ssm_L2-CV-25 toc_L2-CV-25 driverstateL2-CV-25" vType="L2-CV-70" speedFactor="1.03" vaporized="">
        <emissions CO_abs="1664.990124" CO2_abs="227550.431613" HC_abs="10.684549" PMx_abs="2.861385" NOx_abs="79.926212" fuel_abs="97.814572" electricity_abs="0"/>
    </tripinfo>
    <tripinfo id="L0-HDV-4" depart="165.50" departLane="left-long-approaching_0" departPos="5.10" departSpeed="0.00" departDelay="1.50" arrival="290.70" arrivalLane="bottom-exit_1" arrivalPos="486.40" arrivalSpeed="21.57" duration="125.20" routeLength="979.53" waitingTime="0.00" waitingCount="0" stopTime="0.00" timeLoss="78.98" rerouteNo="0" devices="tripinfo_L0-HDV-4 emissions_L0-HDV-4 ssm_L0-HDV-4" vType="L0-HDV-26" speedFactor="1.29" vaporized="">
        <emissions CO_abs="6561.559900" CO2_abs="292161.247085" HC_abs="36.801817" PMx_abs="5.665670" NOx_abs="120.265199" fuel_abs="125.588874" electricity_abs="0"/>
    </tripinfo>
    <tripinfo id="L2-AV-8" depart="152.00" departLane="right-approaching_0" departPos="5.10" departSpeed="0.00" departDelay="4.00" arrival="291.90" arrivalLane="top-exit_0" arrivalPos="486.40" arrivalSpeed="17.73" duration="139.90" routeLength="979.43" waitingTime="69.70" waitingCount="1" stopTime="0.00" timeLoss="83.77" rerouteNo="0" devices="tripinfo_L2-AV-8 emissions_L2-AV-8 ssm_L2-AV-8 toc_L2-AV-8 driverstateL2-AV-8" vType="L0-HDV-98" speedFactor="1.06" vaporized="">
        <emissions CO_abs="14326.518659" CO2_abs="407378.550873" HC_abs="73.633555" PMx_abs="8.148913" NOx_abs="169.470286" fuel_abs="175.120174" electricity_abs="0"/>
    </tripinfo>
    <tripinfo id="L2-AV-4" depart="136.80" departLane="left-long-approaching_0" departPos="5.10" departSpeed="0.00" departDelay="2.80" arrival="292.70" arrivalLane="bottom-exit_0" arrivalPos="486.40" arrivalSpeed="15.32" duration="155.90" routeLength="979.53" waitingTime="81.10" waitingCount="1" stopTime="0.00" timeLoss="90.92" rerouteNo="0" devices="tripinfo_L2-AV-4 emissions_L2-AV-4 ssm_L2-AV-4 toc_L2-AV-4 driverstateL2-AV-4" vType="L2-AV-Right-81" speedFactor="0.92" vaporized="">
        <emissions CO_abs="15490.144822" CO2_abs="442940.466714" HC_abs="78.182398" PMx_abs="8.117142" NOx_abs="179.196026" fuel_abs="190.408040" electricity_abs="0"/>
    </tripinfo>
    <tripinfo id="L2-AV-14" depart="169.00" departLane="right-approaching_0" departPos="5.10" departSpeed="0.00" departDelay="0.00" arrival="293.20" arrivalLane="top-exit_1" arrivalPos="486.40" arrivalSpeed="17.99" duration="124.20" routeLength="979.43" waitingTime="0.00" waitingCount="0" stopTime="0.00" timeLoss="68.80" rerouteNo="0" devices="tripinfo_L2-AV-14 emissions_L2-AV-14 ssm_L2-AV-14 toc_L2-AV-14 driverstateL2-AV-14" vType="L2-AV-37" speedFactor="1.08" vaporized="">
        <emissions CO_abs="2837.343509" CO2_abs="245259.278662" HC_abs="16.863637" PMx_abs="3.490220" NOx_abs="90.298985" fuel_abs="105.427101" electricity_abs="0"/>
    </tripinfo>
    <tripinfo id="L2-AV-12" depart="162.00" departLane="left-long-approaching_0" departPos="5.10" departSpeed="0.00" departDelay="0.00" arrival="294.00" arrivalLane="bottom-exit_1" arrivalPos="486.40" arrivalSpeed="18.04" duration="132.00" routeLength="979.53" waitingTime="0.00" waitingCount="0" stopTime="0.00" timeLoss="76.81" rerouteNo="0" devices="tripinfo_L2-AV-12 emissions_L2-AV-12 ssm_L2-AV-12 toc_L2-AV-12 driverstateL2-AV-12" vType="L2-AV-Right-89" speedFactor="1.08" vaporized="">
        <emissions CO_abs="2920.701932" CO2_abs="200969.504426" HC_abs="17.204767" PMx_abs="3.208736" NOx_abs="77.817372" fuel_abs="86.388643" electricity_abs="0"/>
    </tripinfo>
    <tripinfo id="L2-AV-15" depart="175.30" departLane="right-approaching_0" departPos="5.10" departSpeed="0.00" departDelay="2.80" arrival="297.70" arrivalLane="top-exit_0" arrivalPos="486.40" arrivalSpeed="16.20" duration="122.40" routeLength="979.43" waitingTime="0.00" waitingCount="0" stopTime="0.00" timeLoss="60.90" rerouteNo="0" devices="tripinfo_L2-AV-15 emissions_L2-AV-15 ssm_L2-AV-15 toc_L2-AV-15 driverstateL2-AV-15" vType="L2-AV-57" speedFactor="0.97" vaporized="">
        <emissions CO_abs="3011.852371" CO2_abs="226758.143857" HC_abs="16.818261" PMx_abs="3.147681" NOx_abs="83.696187" fuel_abs="97.474490" electricity_abs="0"/>
    </tripinfo>
    <tripinfo id="L2-AV-25" depart="209.70" departLane="right-approaching_0" departPos="5.10" departSpeed="0.00" departDelay="2.20" arrival="299.70" arrivalLane="top-exit_1" arrivalPos="486.40" arrivalSpeed="17.03" duration="90.00" routeLength="979.43" waitingTime="0.00" waitingCount="0" stopTime="0.00" timeLoss="31.53" rerouteNo="0" devices="tripinfo_L2-AV-25 emissions_L2-AV-25 ssm_L2-AV-25 toc_L2-AV-25 driverstateL2-AV-25" vType="L2-AV-40" speedFactor="1.02" vaporized="">
        <emissions CO_abs="2849.215227" CO2_abs="243239.803540" HC_abs="16.518055" PMx_abs="3.400850" NOx_abs="89.371945" fuel_abs="104.559039" electricity_abs="0"/>
    </tripinfo>
    <tripinfo id="L2-CV-28" depart="221.30" departLane="left-long-approaching_0" departPos="5.10" departSpeed="0.00" departDelay="3.30" arrival="301.10" arrivalLane="bottom-exit_1" arrivalPos="486.40" arrivalSpeed="18.64" duration="79.80" routeLength="979.53" waitingTime="1.20" waitingCount="12" stopTime="0.00" timeLoss="26.40" rerouteNo="0" devices="tripinfo_L2-CV-28 emissions_L2-CV-28 ssm_L2-CV-28 toc_L2-CV-28 driverstateL2-CV-28" vType="L2-CV-Right-51" speedFactor="1.12" vaporized="">
        <emissions CO_abs="3989.709257" CO2_abs="279321.138396" HC_abs="23.385467" PMx_abs="4.371153" NOx_abs="105.517449" fuel_abs="120.069083" electricity_abs="0"/>
    </tripinfo>