<?xml version="1.0" encoding="UTF-8"?>

<!-- generated on 04/12/21 20:20:58 by Eclipse SUMO GUI Version 1.8.0
<configuration xmlns:xsi="http://www.w3.org/2001/XMLSchema-instance" xsi:noNamespaceSchemaLocation="http://sumo.dlr.de/xsd/sumoConfiguration.xsd">

    <input>
        <net-file value="Collision\RealTMSPenetration3\../CollisionIntersection.net.xml"/>
        <route-files value="Collision\RealTMSPenetration3\../CrashedVehicleRoutes.rou.xml,Collision\RealTMSPenetration3\../PresentationRoute.xml"/>
        <additional-files value="Collision\RealTMSPenetration3\../Additional-Files/Collision-Detectors.add.xml,Collision\RealTMSPenetration3\../Additional-Files/Collision-TMS-Rerouters.add.xml,Collision\RealTMSPenetration3\PreparingVehicleModels/Vehicle-Models/L4-CV.add.xml,Collision\RealTMSPenetration3\PreparingVehicleModels/Vehicle-Models/L4-CV-Left.add.xml,Collision\RealTMSPenetration3\PreparingVehicleModels/Vehicle-Models/L4-CV-Right.add.xml,Collision\RealTMSPenetration3\PreparingVehicleModels/Vehicle-Models/L4-AV.add.xml,Collision\RealTMSPenetration3\PreparingVehicleModels/Vehicle-Models/L4-AV-Left.add.xml,Collision\RealTMSPenetration3\PreparingVehicleModels/Vehicle-Models/L4-AV-Right.add.xml,Collision\RealTMSPenetration3\PreparingVehicleModels/Vehicle-Models/L2-CV.add.xml,Collision\RealTMSPenetration3\PreparingVehicleModels/Vehicle-Models/L2-CV-Left.add.xml,Collision\RealTMSPenetration3\PreparingVehicleModels/Vehicle-Models/L2-CV-Right.add.xml,Collision\RealTMSPenetration3\PreparingVehicleModels/Vehicle-Models/L2-AV.add.xml,Collision\RealTMSPenetration3\PreparingVehicleModels/Vehicle-Models/L2-AV-Left.add.xml,Collision\RealTMSPenetration3\PreparingVehicleModels/Vehicle-Models/L2-AV-Right.add.xml,Collision\RealTMSPenetration3\PreparingVehicleModels/Vehicle-Models/L0-HDV.add.xml,Collision\RealTMSPenetration3\PreparingVehicleModels/Vehicle-Models/L0-HDV-Left.add.xml,Collision\RealTMSPenetration3\PreparingVehicleModels/Vehicle-Models/L0-HDV-Straight.add.xml,Collision\RealTMSPenetration3\../Additional-Files/Collision-Traffic-lights.add.xml,Collision\RealTMSPenetration3\../Additional-Files/Collision-Traffic-Signs.add.xml"/>
    </input>

    <output>
        <tripinfo-output value="Collision\RealTMSPenetration3\Output-Files\TripInfo.xml"/>
    </output>

    <time>
        <begin value="0"/>
        <step-length value="0.1"/>
    </time>

    <processing>
        <ignore-route-errors value="true"/>
        <waiting-time-memory value="300"/>
        <default.action-step-length value="0.1"/>
    </processing>

    <emissions>
        <device.emissions.probability value="1"/>
    </emissions>

    <traci_server>
        <remote-port value="52313"/>
    </traci_server>

    <gui_only>
        <tracker-interval value="0.1"/>
    </gui_only>

</configuration>
-->

<tripinfos xmlns:xsi="http://www.w3.org/2001/XMLSchema-instance" xsi:noNamespaceSchemaLocation="http://sumo.dlr.de/xsd/tripinfo_file.xsd">
    <tripinfo id="L4-CV-1.0" depart="170.00" departLane="bottom-approaching_1" departPos="5.10" departSpeed="0.00" departDelay="0.00" arrival="238.60" arrivalLane="left-exit_1" arrivalPos="410.00" arrivalSpeed="16.95" duration="68.60" routeLength="992.31" waitingTime="0.00" waitingCount="0" stopTime="0.00" timeLoss="9.15" rerouteNo="0" devices="tripinfo_L4-CV-1.0 emissions_L4-CV-1.0 ssm_L4-CV-1.0 toc_L4-CV-1.0 driverstateL4-CV-1.0" vType="L4-CV-30@L4-CV-1.0" speedFactor="1.02" vaporized="">
        <emissions CO_abs="2235.177736" CO2_abs="240327.610163" HC_abs="13.016087" PMx_abs="3.212251" NOx_abs="86.378916" fuel_abs="103.306904" electricity_abs="0"/>
    </tripinfo>
    <tripinfo id="L0-HDV-1.0" depart="175.00" departLane="bottom-approaching_1" departPos="5.10" departSpeed="0.00" departDelay="0.00" arrival="257.10" arrivalLane="left-exit_0" arrivalPos="410.00" arrivalSpeed="13.12" duration="82.10" routeLength="992.31" waitingTime="0.00" waitingCount="0" stopTime="0.00" timeLoss="6.41" rerouteNo="0" devices="tripinfo_L0-HDV-1.0 emissions_L0-HDV-1.0 ssm_L0-HDV-1.0" vType="L0-HDV-3@L0-HDV-1.0" speedFactor="0.80" vaporized="">
        <emissions CO_abs="3363.730545" CO2_abs="241461.083314" HC_abs="20.996515" PMx_abs="4.231314" NOx_abs="98.035204" fuel_abs="103.793592" electricity_abs="0"/>
    </tripinfo>
    <tripinfo id="L4-CV-0.0" depart="170.00" departLane="left-long-approaching_2" departPos="5.10" departSpeed="0.00" departDelay="0.00" arrival="272.50" arrivalLane="top-exit_0" arrivalPos="486.40" arrivalSpeed="16.85" duration="102.50" routeLength="997.47" waitingTime="30.00" waitingCount="1" stopTime="0.00" timeLoss="42.37" rerouteNo="0" devices="tripinfo_L4-CV-0.0 emissions_L4-CV-0.0 ssm_L4-CV-0.0 toc_L4-CV-0.0 driverstateL4-CV-0.0" vType="L4-CV-Left-32@L4-CV-0.0" speedFactor="1.01" vaporized="">
        <emissions CO_abs="7515.067678" CO2_abs="326683.130440" HC_abs="39.046221" PMx_abs="5.328570" NOx_abs="125.712356" fuel_abs="140.429899" electricity_abs="0"/>
    </tripinfo>
    <tripinfo id="L4-CV-2.0" depart="175.00" departLane="left-long-approaching_1" departPos="5.10" departSpeed="0.00" departDelay="0.00" arrival="284.70" arrivalLane="top-exit_0" arrivalPos="486.40" arrivalSpeed="12.93" duration="109.70" routeLength="997.47" waitingTime="12.00" waitingCount="22" stopTime="0.00" timeLoss="31.41" rerouteNo="0" devices="tripinfo_L4-CV-2.0 emissions_L4-CV-2.0 ssm_L4-CV-2.0 toc_L4-CV-2.0 driverstateL4-CV-2.0" vType="L4-CV-Left-88@L4-CV-2.0" speedFactor="0.78" vaporized="">
        <emissions CO_abs="4343.839959" CO2_abs="273623.916138" HC_abs="25.601861" PMx_abs="3.297841" NOx_abs="99.717215" fuel_abs="117.621848" electricity_abs="0"/>
    </tripinfo>
</tripinfos>
