<?xml version="1.0" encoding="UTF-8"?>

<!-- generated on 03/31/21 22:51:20 by Eclipse SUMO GUI Version 1.8.0
<configuration xmlns:xsi="http://www.w3.org/2001/XMLSchema-instance" xsi:noNamespaceSchemaLocation="http://sumo.dlr.de/xsd/sumoConfiguration.xsd">

    <input>
        <net-file value="Collision\RealTMSPenetration3\../CollisionIntersection.net.xml"/>
        <route-files value="Collision\RealTMSPenetration3\../CrashedVehicleRoutes.rou.xml,Collision\RealTMSPenetration3\Route-Files/L4-CV-Route.rou.xml,Collision\RealTMSPenetration3\Route-Files/L4-AV-Route.rou.xml,Collision\RealTMSPenetration3\Route-Files/L2-CV-Route.rou.xml,Collision\RealTMSPenetration3\Route-Files/L2-AV-Route.rou.xml,Collision\RealTMSPenetration3\Route-Files/L0-HDV-Route.rou.xml"/>
        <additional-files value="Collision\RealTMSPenetration3\../Additional-Files/Collision-Detectors.add.xml,Collision\RealTMSPenetration3\../Additional-Files/Collision-TMS-Rerouters.add.xml,Collision\RealTMSPenetration3\PreparingVehicleModels/Vehicle-Models/L4-CV.add.xml,Collision\RealTMSPenetration3\PreparingVehicleModels/Vehicle-Models/L4-CV-Left.add.xml,Collision\RealTMSPenetration3\PreparingVehicleModels/Vehicle-Models/L4-CV-Right.add.xml,Collision\RealTMSPenetration3\PreparingVehicleModels/Vehicle-Models/L4-AV.add.xml,Collision\RealTMSPenetration3\PreparingVehicleModels/Vehicle-Models/L4-AV-Left.add.xml,Collision\RealTMSPenetration3\PreparingVehicleModels/Vehicle-Models/L4-AV-Right.add.xml,Collision\RealTMSPenetration3\PreparingVehicleModels/Vehicle-Models/L2-CV.add.xml,Collision\RealTMSPenetration3\PreparingVehicleModels/Vehicle-Models/L2-CV-Left.add.xml,Collision\RealTMSPenetration3\PreparingVehicleModels/Vehicle-Models/L2-CV-Right.add.xml,Collision\RealTMSPenetration3\PreparingVehicleModels/Vehicle-Models/L2-AV.add.xml,Collision\RealTMSPenetration3\PreparingVehicleModels/Vehicle-Models/L2-AV-Left.add.xml,Collision\RealTMSPenetration3\PreparingVehicleModels/Vehicle-Models/L2-AV-Right.add.xml,Collision\RealTMSPenetration3\PreparingVehicleModels/Vehicle-Models/L0-HDV.add.xml,Collision\RealTMSPenetration3\PreparingVehicleModels/Vehicle-Models/L0-HDV-Left.add.xml,Collision\RealTMSPenetration3\PreparingVehicleModels/Vehicle-Models/L0-HDV-Straight.add.xml,Collision\RealTMSPenetration3\../Additional-Files/Collision-Traffic-lights.add.xml,Collision\RealTMSPenetration3\../Additional-Files/Collision-Traffic-Signs.add.xml"/>
    </input>

    <output>
        <tripinfo-output value="Collision\RealTMSPenetration3\Output-Files\TripInfo.xml"/>
    </output>

    <time>
        <begin value="0"/>
        <step-length value="0.1"/>
    </time>

    <processing>
        <ignore-route-errors value="true"/>
        <waiting-time-memory value="300"/>
        <default.action-step-length value="0.1"/>
    </processing>

    <report>
        <no-warnings value="true"/>
    </report>

    <emissions>
        <device.emissions.probability value="1"/>
    </emissions>

    <traci_server>
        <remote-port value="56816"/>
    </traci_server>

    <gui_only>
        <quit-on-end value="true"/>
        <start value="true"/>
        <tracker-interval value="0.1"/>
    </gui_only>

</configuration>
-->

<tripinfos xmlns:xsi="http://www.w3.org/2001/XMLSchema-instance" xsi:noNamespaceSchemaLocation="http://sumo.dlr.de/xsd/tripinfo_file.xsd">
    <tripinfo id="L2-CV-2" depart="132.00" departLane="right-approaching_0" departPos="5.10" departSpeed="0.00" departDelay="0.00" arrival="195.90" arrivalLane="top-exit_0" arrivalPos="486.40" arrivalSpeed="20.01" duration="63.90" routeLength="979.43" waitingTime="0.00" waitingCount="0" stopTime="0.00" timeLoss="14.03" rerouteNo="0" devices="tripinfo_L2-CV-2 emissions_L2-CV-2 ssm_L2-CV-2 toc_L2-CV-2 driverstateL2-CV-2" vType="L2-CV-0" speedFactor="1.20" vaporized="">
        <emissions CO_abs="2727.306170" CO2_abs="261048.281987" HC_abs="17.286980" PMx_abs="4.076279" NOx_abs="96.937830" fuel_abs="112.213621" electricity_abs="0"/>
    </tripinfo>
    <tripinfo id="L4-CV-0" depart="120.00" departLane="bottom-approaching_0" departPos="5.10" departSpeed="0.00" departDelay="0.00" arrival="234.20" arrivalLane="top-exit_0" arrivalPos="486.40" arrivalSpeed="16.26" duration="114.20" routeLength="994.90" waitingTime="41.40" waitingCount="1" stopTime="0.00" timeLoss="52.92" rerouteNo="0" devices="tripinfo_L4-CV-0 emissions_L4-CV-0 ssm_L4-CV-0 toc_L4-CV-0 driverstateL4-CV-0" vType="L4-CV-89" speedFactor="0.98" vaporized="">
        <emissions CO_abs="9148.775759" CO2_abs="348107.953521" HC_abs="46.866257" PMx_abs="5.813254" NOx_abs="135.484159" fuel_abs="149.640424" electricity_abs="0"/>
    </tripinfo>
    <tripinfo id="L2-AV-1" depart="126.20" departLane="bottom-approaching_0" departPos="5.10" departSpeed="0.00" departDelay="0.20" arrival="235.10" arrivalLane="right-exit_0" arrivalPos="486.40" arrivalSpeed="17.38" duration="108.90" routeLength="979.43" waitingTime="32.50" waitingCount="1" stopTime="0.00" timeLoss="51.56" rerouteNo="0" devices="tripinfo_L2-AV-1 emissions_L2-AV-1 ssm_L2-AV-1 toc_L2-AV-1 driverstateL2-AV-1" vType="L2-AV-1" speedFactor="1.04" vaporized="">
        <emissions CO_abs="8507.127526" CO2_abs="340666.022271" HC_abs="44.406443" PMx_abs="5.760175" NOx_abs="133.073605" fuel_abs="146.440986" electricity_abs="0"/>
    </tripinfo>
    <tripinfo id="L0-HDV-0" depart="123.10" departLane="bottom-approaching_0" departPos="5.10" departSpeed="0.00" departDelay="3.10" arrival="235.50" arrivalLane="top-exit_0" arrivalPos="486.40" arrivalSpeed="17.21" duration="112.40" routeLength="994.90" waitingTime="38.40" waitingCount="1" stopTime="0.00" timeLoss="55.01" rerouteNo="0" devices="tripinfo_L0-HDV-0 emissions_L0-HDV-0 ssm_L0-HDV-0" vType="L0-HDV-32" speedFactor="1.04" vaporized="">
        <emissions CO_abs="9623.248310" CO2_abs="336849.294998" HC_abs="51.593558" PMx_abs="6.645133" NOx_abs="140.199955" fuel_abs="144.800021" electricity_abs="0"/>
    </tripinfo>
    <tripinfo id="L4-CV-1" depart="132.00" departLane="top-approaching_0" departPos="5.10" departSpeed="0.00" departDelay="0.00" arrival="235.70" arrivalLane="left-exit_1" arrivalPos="410.00" arrivalSpeed="18.72" duration="103.70" routeLength="979.53" waitingTime="28.00" waitingCount="1" stopTime="0.00" timeLoss="50.50" rerouteNo="0" devices="tripinfo_L4-CV-1 emissions_L4-CV-1 ssm_L4-CV-1 toc_L4-CV-1 driverstateL4-CV-1" vType="L4-CV-15@L4-CV-1" speedFactor="1.12" vaporized="">
        <emissions CO_abs="8220.283253" CO2_abs="345900.255581" HC_abs="43.752722" PMx_abs="6.040985" NOx_abs="136.000554" fuel_abs="148.690493" electricity_abs="0"/>
    </tripinfo>
    <tripinfo id="L2-AV-3" depart="138.00" departLane="top-approaching_0" departPos="5.10" departSpeed="0.00" departDelay="0.00" arrival="237.10" arrivalLane="bottom-exit_0" arrivalPos="486.40" arrivalSpeed="14.87" duration="99.10" routeLength="994.90" waitingTime="21.10" waitingCount="1" stopTime="0.00" timeLoss="32.11" rerouteNo="0" devices="tripinfo_L2-AV-3 emissions_L2-AV-3 ssm_L2-AV-3 toc_L2-AV-3 driverstateL2-AV-3" vType="L2-AV-23" speedFactor="0.89" vaporized="">
        <emissions CO_abs="5651.619624" CO2_abs="289431.949693" HC_abs="29.939685" PMx_abs="4.096342" NOx_abs="107.941770" fuel_abs="124.416935" electricity_abs="0"/>
    </tripinfo>
    <tripinfo id="L2-AV-0" depart="123.00" departLane="bottom-approaching_0" departPos="5.10" departSpeed="0.00" departDelay="3.00" arrival="237.90" arrivalLane="top-exit_0" arrivalPos="486.40" arrivalSpeed="16.59" duration="114.90" routeLength="994.90" waitingTime="40.20" waitingCount="1" stopTime="0.00" timeLoss="54.83" rerouteNo="0" devices="tripinfo_L2-AV-0 emissions_L2-AV-0 ssm_L2-AV-0 toc_L2-AV-0 driverstateL2-AV-0" vType="L2-AV-56" speedFactor="1.00" vaporized="">
        <emissions CO_abs="9538.788724" CO2_abs="359720.351871" HC_abs="49.478430" PMx_abs="6.229814" NOx_abs="142.107050" fuel_abs="154.631998" electricity_abs="0"/>
    </tripinfo>
    <tripinfo id="L2-AV-6" depart="156.00" departLane="bottom-approaching_0" departPos="5.10" departSpeed="0.00" departDelay="0.00" arrival="239.30" arrivalLane="top-exit_0" arrivalPos="486.40" arrivalSpeed="17.62" duration="83.30" routeLength="994.90" waitingTime="0.00" waitingCount="0" stopTime="0.00" timeLoss="26.75" rerouteNo="0" devices="tripinfo_L2-AV-6 emissions_L2-AV-6 ssm_L2-AV-6 toc_L2-AV-6 driverstateL2-AV-6" vType="L2-AV-30" speedFactor="1.06" vaporized="">
        <emissions CO_abs="2689.502527" CO2_abs="196606.556923" HC_abs="15.936928" PMx_abs="3.083897" NOx_abs="75.538366" fuel_abs="84.513130" electricity_abs="0"/>
    </tripinfo>
    <tripinfo id="L2-CV-5" depart="150.10" departLane="top-approaching_0" departPos="5.10" departSpeed="0.00" departDelay="0.10" arrival="241.30" arrivalLane="bottom-exit_0" arrivalPos="486.40" arrivalSpeed="14.25" duration="91.20" routeLength="994.90" waitingTime="2.00" waitingCount="2" stopTime="0.00" timeLoss="21.30" rerouteNo="0" devices="tripinfo_L2-CV-5 emissions_L2-CV-5 ssm_L2-CV-5 toc_L2-CV-5 driverstateL2-CV-5" vType="L2-CV-58" speedFactor="0.85" vaporized="">
        <emissions CO_abs="2641.073101" CO2_abs="244725.805198" HC_abs="16.060834" PMx_abs="2.792315" NOx_abs="86.907956" fuel_abs="105.198589" electricity_abs="0"/>
    </tripinfo>
    <tripinfo id="L2-CV-11" depart="187.10" departLane="top-approaching_0" departPos="5.10" departSpeed="0.00" departDelay="1.10" arrival="248.70" arrivalLane="bottom-exit_0" arrivalPos="486.40" arrivalSpeed="19.05" duration="61.60" routeLength="994.90" waitingTime="0.00" waitingCount="0" stopTime="0.00" timeLoss="9.29" rerouteNo="0" devices="tripinfo_L2-CV-11 emissions_L2-CV-11 ssm_L2-CV-11 toc_L2-CV-11 driverstateL2-CV-11" vType="L2-CV-34" speedFactor="1.14" vaporized="">
        <emissions CO_abs="2503.128923" CO2_abs="265264.091811" HC_abs="16.242536" PMx_abs="4.205772" NOx_abs="99.288586" fuel_abs="114.025431" electricity_abs="0"/>
    </tripinfo>
    <tripinfo id="L4-AV-2" depart="144.00" departLane="top-approaching_0" departPos="5.10" departSpeed="0.00" departDelay="0.00" arrival="250.90" arrivalLane="right-exit_0" arrivalPos="486.40" arrivalSpeed="13.99" duration="106.90" routeLength="992.21" waitingTime="20.00" waitingCount="2" stopTime="0.00" timeLoss="34.82" rerouteNo="0" devices="tripinfo_L4-AV-2 emissions_L4-AV-2 ssm_L4-AV-2 toc_L4-AV-2 driverstateL4-AV-2" vType="L4-AV-74" speedFactor="0.84" vaporized="">
        <emissions CO_abs="5858.005247" CO2_abs="292125.109256" HC_abs="31.635011" PMx_abs="4.056558" NOx_abs="109.308033" fuel_abs="125.574935" electricity_abs="0"/>
    </tripinfo>
    <tripinfo id="L2-CV-4" depart="147.20" departLane="top-approaching_0" departPos="5.10" departSpeed="0.00" departDelay="3.20" arrival="251.40" arrivalLane="right-exit_1" arrivalPos="486.40" arrivalSpeed="14.62" duration="104.20" routeLength="992.21" waitingTime="13.10" waitingCount="2" stopTime="0.00" timeLoss="35.39" rerouteNo="0" devices="tripinfo_L2-CV-4 emissions_L2-CV-4 ssm_L2-CV-4 toc_L2-CV-4 driverstateL2-CV-4" vType="L2-CV-84" speedFactor="0.88" vaporized="">
        <emissions CO_abs="3640.529421" CO2_abs="234392.606608" HC_abs="20.483937" PMx_abs="3.152952" NOx_abs="86.711525" fuel_abs="100.756906" electricity_abs="0"/>
    </tripinfo>
    <tripinfo id="L2-CV-10" depart="183.10" departLane="top-approaching_0" departPos="5.10" departSpeed="0.00" departDelay="3.10" arrival="254.40" arrivalLane="bottom-exit_0" arrivalPos="486.40" arrivalSpeed="16.58" duration="71.30" routeLength="994.90" waitingTime="0.10" waitingCount="1" stopTime="0.00" timeLoss="11.26" rerouteNo="0" devices="tripinfo_L2-CV-10 emissions_L2-CV-10 ssm_L2-CV-10 toc_L2-CV-10 driverstateL2-CV-10" vType="L0-HDV-16" speedFactor="1.00" vaporized="">
        <emissions CO_abs="2048.068038" CO2_abs="195246.041875" HC_abs="13.452759" PMx_abs="2.784101" NOx_abs="72.742484" fuel_abs="83.928335" electricity_abs="0"/>
    </tripinfo>
    <tripinfo id="L2-CV-6" depart="156.00" departLane="left-long-approaching_0" departPos="5.10" departSpeed="0.00" departDelay="0.00" arrival="286.80" arrivalLane="bottom-exit_0" arrivalPos="486.40" arrivalSpeed="16.95" duration="130.80" routeLength="979.53" waitingTime="54.10" waitingCount="1" stopTime="0.00" timeLoss="72.07" rerouteNo="0" devices="tripinfo_L2-CV-6 emissions_L2-CV-6 ssm_L2-CV-6 toc_L2-CV-6 driverstateL2-CV-6" vType="L2-CV-Right-59" speedFactor="1.02" vaporized="">
        <emissions CO_abs="11837.235787" CO2_abs="388227.257700" HC_abs="60.599025" PMx_abs="6.974660" NOx_abs="155.231406" fuel_abs="166.887127" electricity_abs="0"/>
    </tripinfo>
    <tripinfo id="L0-HDV-3" depart="174.00" departLane="right-approaching_0" departPos="5.10" departSpeed="0.00" departDelay="0.00" arrival="287.30" arrivalLane="top-exit_1" arrivalPos="486.40" arrivalSpeed="18.78" duration="113.30" routeLength="979.43" waitingTime="41.30" waitingCount="1" stopTime="0.00" timeLoss="60.24" rerouteNo="0" devices="tripinfo_L0-HDV-3 emissions_L0-HDV-3 ssm_L0-HDV-3" vType="L0-HDV-52" speedFactor="1.13" vaporized="">
        <emissions CO_abs="10152.992289" CO2_abs="330318.881186" HC_abs="53.265926" PMx_abs="6.457492" NOx_abs="136.469665" fuel_abs="141.993480" electricity_abs="0"/>
    </tripinfo>
    <tripinfo id="L2-AV-9" depart="177.00" departLane="left-long-approaching_0" departPos="5.10" departSpeed="0.00" departDelay="3.00" arrival="287.90" arrivalLane="top-exit_0" arrivalPos="486.40" arrivalSpeed="15.11" duration="110.90" routeLength="992.31" waitingTime="34.30" waitingCount="1" stopTime="0.00" timeLoss="44.10" rerouteNo="0" devices="tripinfo_L2-AV-9 emissions_L2-AV-9 ssm_L2-AV-9 toc_L2-AV-9 driverstateL2-AV-9" vType="L2-AV-Left-3" speedFactor="0.91" vaporized="">
        <emissions CO_abs="8039.486118" CO2_abs="332805.274916" HC_abs="41.901538" PMx_abs="5.364163" NOx_abs="129.125136" fuel_abs="143.061962" electricity_abs="0"/>
    </tripinfo>
    <tripinfo id="L2-AV-10" depart="180.00" departLane="left-long-approaching_0" departPos="5.10" departSpeed="0.00" departDelay="0.00" arrival="288.80" arrivalLane="bottom-exit_0" arrivalPos="486.40" arrivalSpeed="18.70" duration="108.80" routeLength="979.53" waitingTime="0.10" waitingCount="1" stopTime="0.00" timeLoss="55.46" rerouteNo="0" devices="tripinfo_L2-AV-10 emissions_L2-AV-10 ssm_L2-AV-10 toc_L2-AV-10 driverstateL2-AV-10" vType="L2-AV-Right-79" speedFactor="1.12" vaporized="">
        <emissions CO_abs="3492.866938" CO2_abs="225067.069727" HC_abs="20.520008" PMx_abs="3.558195" NOx_abs="87.106735" fuel_abs="96.747483" electricity_abs="0"/>
    </tripinfo>
    <tripinfo id="L4-CV-3" depart="156.00" departLane="right-approaching_0" departPos="5.10" departSpeed="0.00" departDelay="0.00" arrival="289.40" arrivalLane="top-exit_0" arrivalPos="486.40" arrivalSpeed="16.52" duration="133.40" routeLength="979.43" waitingTime="54.70" waitingCount="1" stopTime="0.00" timeLoss="73.19" rerouteNo="0" devices="tripinfo_L4-CV-3 emissions_L4-CV-3 ssm_L4-CV-3 toc_L4-CV-3 driverstateL4-CV-3" vType="L4-CV-12" speedFactor="0.99" vaporized="">
        <emissions CO_abs="12144.541685" CO2_abs="358895.255134" HC_abs="62.275147" PMx_abs="6.836670" NOx_abs="147.659016" fuel_abs="154.278601" electricity_abs="0"/>
    </tripinfo>
    <tripinfo id="L2-AV-2" depart="132.00" departLane="bottom-approaching_0" departPos="5.10" departSpeed="0.00" departDelay="0.00" arrival="291.90" arrivalLane="left-exit_1" arrivalPos="410.00" arrivalSpeed="17.04" duration="159.90" routeLength="992.31" waitingTime="73.10" waitingCount="4" stopTime="0.00" timeLoss="100.67" rerouteNo="0" devices="tripinfo_L2-AV-2 emissions_L2-AV-2 ssm_L2-AV-2 toc_L2-AV-2 driverstateL2-AV-2" vType="L2-AV-94@L2-AV-2" speedFactor="1.02" vaporized="">
        <emissions CO_abs="16157.127589" CO2_abs="465766.630136" HC_abs="82.618303" PMx_abs="9.029987" NOx_abs="192.276973" fuel_abs="200.219617" electricity_abs="0"/>
    </tripinfo>
    <tripinfo id="L4-AV-7" depart="204.00" departLane="right-approaching_0" departPos="5.10" departSpeed="0.00" departDelay="0.00" arrival="292.30" arrivalLane="top-exit_0" arrivalPos="486.40" arrivalSpeed="17.00" duration="88.30" routeLength="979.43" waitingTime="0.00" waitingCount="0" stopTime="0.00" timeLoss="29.77" rerouteNo="0" devices="tripinfo_L4-AV-7 emissions_L4-AV-7 ssm_L4-AV-7 toc_L4-AV-7 driverstateL4-AV-7" vType="L4-AV-30" speedFactor="1.02" vaporized="">
        <emissions CO_abs="2900.997798" CO2_abs="244848.071164" HC_abs="16.817015" PMx_abs="3.416690" NOx_abs="89.984335" fuel_abs="105.250409" electricity_abs="0"/>
    </tripinfo>
    <tripinfo id="L4-CV-7" depart="204.00" departLane="left-long-approaching_0" departPos="5.10" departSpeed="0.00" departDelay="0.00" arrival="295.70" arrivalLane="right-exit_0" arrivalPos="486.40" arrivalSpeed="16.97" duration="91.70" routeLength="995.23" waitingTime="0.10" waitingCount="1" stopTime="0.00" timeLoss="33.00" rerouteNo="0" devices="tripinfo_L4-CV-7 emissions_L4-CV-7 ssm_L4-CV-7 toc_L4-CV-7 driverstateL4-CV-7" vType="L4-CV-59@L4-CV-7" speedFactor="1.02" vaporized="">
        <emissions CO_abs="3230.196746" CO2_abs="246396.938859" HC_abs="18.920379" PMx_abs="3.569129" NOx_abs="92.445589" fuel_abs="105.916272" electricity_abs="0"/>
    </tripinfo>
    <tripinfo id="L0-HDV-1" depart="138.10" departLane="top-approaching_0" departPos="5.10" departSpeed="0.00" departDelay="0.10" arrival="296.50" arrivalLane="left-exit_1" arrivalPos="410.00" arrivalSpeed="19.67" duration="158.40" routeLength="979.53" waitingTime="87.60" waitingCount="3" stopTime="0.00" timeLoss="107.71" rerouteNo="0" devices="tripinfo_L0-HDV-1 emissions_L0-HDV-1 ssm_L0-HDV-1" vType="L0-HDV-97@L0-HDV-1" speedFactor="1.18" vaporized="">
        <emissions CO_abs="17920.785693" CO2_abs="444983.612893" HC_abs="91.663891" PMx_abs="9.793947" NOx_abs="192.378116" fuel_abs="191.286072" electricity_abs="0"/>
    </tripinfo>
    <tripinfo id="L2-AV-13" depart="198.00" departLane="left-long-approaching_0" departPos="5.10" departSpeed="0.00" departDelay="0.00" arrival="305.20" arrivalLane="right-exit_0" arrivalPos="486.40" arrivalSpeed="14.90" duration="107.20" routeLength="995.23" waitingTime="0.00" waitingCount="0" stopTime="0.00" timeLoss="40.28" rerouteNo="0" devices="tripinfo_L2-AV-13 emissions_L2-AV-13 ssm_L2-AV-13 toc_L2-AV-13 driverstateL2-AV-13" vType="L2-AV-15" speedFactor="0.89" vaporized="">
        <emissions CO_abs="3163.982828" CO2_abs="247146.232499" HC_abs="17.984283" PMx_abs="3.142825" NOx_abs="89.989928" fuel_abs="106.238856" electricity_abs="0"/>
    </tripinfo>
    <tripinfo id="L2-AV-11" depart="186.00" departLane="left-long-approaching_0" departPos="5.10" departSpeed="0.00" departDelay="0.00" arrival="309.00" arrivalLane="top-exit_1" arrivalPos="486.40" arrivalSpeed="17.75" duration="123.00" routeLength="992.31" waitingTime="15.60" waitingCount="1" stopTime="0.00" timeLoss="66.22" rerouteNo="0" devices="tripinfo_L2-AV-11 emissions_L2-AV-11 ssm_L2-AV-11 toc_L2-AV-11 driverstateL2-AV-11" vType="L2-AV-Left-47" speedFactor="1.07" vaporized="">
        <emissions CO_abs="6007.518586" CO2_abs="301517.877628" HC_abs="32.464791" PMx_abs="4.831614" NOx_abs="115.810247" fuel_abs="129.611651" electricity_abs="0"/>
    </tripinfo>
    <tripinfo id="L2-CV-19" depart="234.00" departLane="right-approaching_0" departPos="5.10" departSpeed="0.00" departDelay="0.00" arrival="309.80" arrivalLane="top-exit_0" arrivalPos="486.40" arrivalSpeed="14.71" duration="75.80" routeLength="979.43" waitingTime="0.00" waitingCount="0" stopTime="0.00" timeLoss="8.11" rerouteNo="0" devices="tripinfo_L2-CV-19 emissions_L2-CV-19 ssm_L2-CV-19 toc_L2-CV-19 driverstateL2-CV-19" vType="L2-CV-20" speedFactor="0.88" vaporized="">
        <emissions CO_abs="1749.079096" CO2_abs="222557.624751" HC_abs="11.264883" PMx_abs="2.414456" NOx_abs="77.536191" fuel_abs="95.668940" electricity_abs="0"/>
    </tripinfo>
    <tripinfo id="L2-AV-14" depart="208.00" departLane="left-long-approaching_0" departPos="5.10" departSpeed="0.00" departDelay="4.00" arrival="310.00" arrivalLane="right-exit_0" arrivalPos="486.40" arrivalSpeed="16.90" duration="102.00" routeLength="995.23" waitingTime="0.00" waitingCount="0" stopTime="0.00" timeLoss="42.98" rerouteNo="0" devices="tripinfo_L2-AV-14 emissions_L2-AV-14 ssm_L2-AV-14 toc_L2-AV-14 driverstateL2-AV-14" vType="L2-AV-24" speedFactor="1.01" vaporized="">
        <emissions CO_abs="3260.613370" CO2_abs="246209.737514" HC_abs="18.600388" PMx_abs="3.637108" NOx_abs="92.199615" fuel_abs="105.835697" electricity_abs="0"/>
    </tripinfo>
    <tripinfo id="L2-CV-9" depart="174.00" departLane="left-long-approaching_0" departPos="5.10" departSpeed="0.00" departDelay="0.00" arrival="310.80" arrivalLane="top-exit_1" arrivalPos="486.40" arrivalSpeed="16.72" duration="136.80" routeLength="997.47" waitingTime="59.40" waitingCount="2" stopTime="0.00" timeLoss="76.19" rerouteNo="0" devices="tripinfo_L2-CV-9 emissions_L2-CV-9 ssm_L2-CV-9 toc_L2-CV-9 driverstateL2-CV-9" vType="L2-CV-Left-64@L2-CV-9" speedFactor="1.00" vaporized="">
        <emissions CO_abs="12730.074042" CO2_abs="385092.752211" HC_abs="65.294727" PMx_abs="7.376158" NOx_abs="158.004882" fuel_abs="165.539858" electricity_abs="0"/>
    </tripinfo>
    <tripinfo id="L4-AV-5" depart="180.00" departLane="right-approaching_0" departPos="5.10" departSpeed="0.00" departDelay="0.00" arrival="315.70" arrivalLane="bottom-exit_0" arrivalPos="486.40" arrivalSpeed="16.58" duration="135.70" routeLength="992.21" waitingTime="57.10" waitingCount="3" stopTime="0.00" timeLoss="74.88" rerouteNo="0" devices="tripinfo_L4-AV-5 emissions_L4-AV-5 ssm_L4-AV-5 toc_L4-AV-5 driverstateL4-AV-5" vType="L4-AV-41" speedFactor="0.99" vaporized="">
        <emissions CO_abs="12486.237390" CO2_abs="405431.090259" HC_abs="63.801685" PMx_abs="7.255337" NOx_abs="161.981236" fuel_abs="174.282671" electricity_abs="0"/>
    </tripinfo>
    <tripinfo id="L2-CV-12" depart="192.00" departLane="right-approaching_0" departPos="5.10" departSpeed="0.00" departDelay="0.00" arrival="318.60" arrivalLane="bottom-exit_0" arrivalPos="486.40" arrivalSpeed="17.06" duration="126.60" routeLength="992.21" waitingTime="34.00" waitingCount="2" stopTime="0.00" timeLoss="67.90" rerouteNo="0" devices="tripinfo_L2-CV-12 emissions_L2-CV-12 ssm_L2-CV-12 toc_L2-CV-12 driverstateL2-CV-12" vType="L2-CV-0" speedFactor="1.02" vaporized="">
        <emissions CO_abs="6672.510845" CO2_abs="317638.676551" HC_abs="35.910441" PMx_abs="5.019891" NOx_abs="121.654749" fuel_abs="136.541820" electricity_abs="0"/>
    </tripinfo>
    <tripinfo id="L2-AV-22" depart="253.60" departLane="left-long-approaching_0" departPos="5.10" departSpeed="0.00" departDelay="1.60" arrival="322.60" arrivalLane="top-exit_0" arrivalPos="486.40" arrivalSpeed="16.74" duration="69.00" routeLength="992.31" waitingTime="0.00" waitingCount="0" stopTime="0.00" timeLoss="8.74" rerouteNo="0" devices="tripinfo_L2-AV-22 emissions_L2-AV-22 ssm_L2-AV-22 toc_L2-AV-22 driverstateL2-AV-22" vType="L2-AV-Left-97" speedFactor="1.00" vaporized="">
        <emissions CO_abs="1809.256573" CO2_abs="215500.327833" HC_abs="11.030014" PMx_abs="2.705439" NOx_abs="76.189233" fuel_abs="92.634851" electricity_abs="0"/>
    </tripinfo>
    <tripinfo id="L2-AV-4" depart="144.00" departLane="right-approaching_0" departPos="5.10" departSpeed="0.00" departDelay="0.00" arrival="325.60" arrivalLane="left-exit_0" arrivalPos="410.00" arrivalSpeed="15.36" duration="181.60" routeLength="995.12" waitingTime="75.20" waitingCount="1" stopTime="0.00" timeLoss="116.69" rerouteNo="0" devices="tripinfo_L2-AV-4 emissions_L2-AV-4 ssm_L2-AV-4 toc_L2-AV-4 driverstateL2-AV-4" vType="L2-AV-44@L2-AV-4" speedFactor="0.92" vaporized="">
        <emissions CO_abs="14927.421249" CO2_abs="433415.985737" HC_abs="75.456694" PMx_abs="7.900057" NOx_abs="175.018463" fuel_abs="186.313599" electricity_abs="0"/>
    </tripinfo>
    <tripinfo id="L2-CV-13" depart="198.00" departLane="bottom-approaching_0" departPos="5.10" departSpeed="0.00" departDelay="0.00" arrival="345.20" arrivalLane="top-exit_0" arrivalPos="486.40" arrivalSpeed="18.04" duration="147.20" routeLength="994.90" waitingTime="79.40" waitingCount="1" stopTime="0.00" timeLoss="91.98" rerouteNo="0" devices="tripinfo_L2-CV-13 emissions_L2-CV-13 ssm_L2-CV-13 toc_L2-CV-13 driverstateL2-CV-13" vType="L2-CV-48" speedFactor="1.08" vaporized="">
        <emissions CO_abs="15482.683124" CO2_abs="457482.832233" HC_abs="79.067472" PMx_abs="8.859815" NOx_abs="186.609339" fuel_abs="196.658500" electricity_abs="0"/>
    </tripinfo>
    <tripinfo id="L2-AV-12" depart="192.00" departLane="bottom-approaching_0" departPos="5.10" departSpeed="0.00" departDelay="0.00" arrival="347.10" arrivalLane="right-exit_0" arrivalPos="486.40" arrivalSpeed="16.14" duration="155.10" routeLength="979.43" waitingTime="83.00" waitingCount="1" stopTime="0.00" timeLoss="93.34" rerouteNo="0" devices="tripinfo_L2-AV-12 emissions_L2-AV-12 ssm_L2-AV-12 toc_L2-AV-12 driverstateL2-AV-12" vType="L2-AV-38" speedFactor="0.97" vaporized="">
        <emissions CO_abs="15855.735248" CO2_abs="451131.091176" HC_abs="80.034835" PMx_abs="8.460300" NOx_abs="183.341629" fuel_abs="193.928783" electricity_abs="0"/>
    </tripinfo>
    <tripinfo id="L4-CV-6" depart="192.00" departLane="top-approaching_0" departPos="5.10" departSpeed="0.00" departDelay="0.00" arrival="349.50" arrivalLane="bottom-exit_0" arrivalPos="486.40" arrivalSpeed="15.61" duration="157.50" routeLength="994.90" waitingTime="81.50" waitingCount="1" stopTime="0.00" timeLoss="93.66" rerouteNo="0" devices="tripinfo_L4-CV-6 emissions_L4-CV-6 ssm_L4-CV-6 toc_L4-CV-6 driverstateL4-CV-6" vType="L4-CV-81" speedFactor="0.94" vaporized="">
        <emissions CO_abs="15614.418909" CO2_abs="449004.202339" HC_abs="79.104748" PMx_abs="8.252942" NOx_abs="181.720040" fuel_abs="193.014617" electricity_abs="0"/>
    </tripinfo>
    <tripinfo id="L4-CV-8" depart="216.00" departLane="bottom-approaching_0" departPos="5.10" departSpeed="0.00" departDelay="0.00" arrival="350.40" arrivalLane="top-exit_0" arrivalPos="486.40" arrivalSpeed="16.25" duration="134.40" routeLength="994.90" waitingTime="54.70" waitingCount="25" stopTime="0.00" timeLoss="73.31" rerouteNo="0" devices="tripinfo_L4-CV-8 emissions_L4-CV-8 ssm_L4-CV-8 toc_L4-CV-8 driverstateL4-CV-8" vType="L4-CV-30" speedFactor="0.98" vaporized="">
        <emissions CO_abs="9871.635300" CO2_abs="364491.328027" HC_abs="51.209730" PMx_abs="6.154065" NOx_abs="142.737748" fuel_abs="156.683365" electricity_abs="0"/>
    </tripinfo>
    <tripinfo id="L2-AV-19" depart="234.00" departLane="bottom-approaching_0" departPos="5.10" departSpeed="0.00" departDelay="0.00" arrival="351.40" arrivalLane="top-exit_1" arrivalPos="486.40" arrivalSpeed="18.28" duration="117.40" routeLength="994.90" waitingTime="0.00" waitingCount="0" stopTime="0.00" timeLoss="62.86" rerouteNo="0" devices="tripinfo_L2-AV-19 emissions_L2-AV-19 ssm_L2-AV-19 toc_L2-AV-19 driverstateL2-AV-19" vType="L2-AV-24" speedFactor="1.10" vaporized="">
        <emissions CO_abs="2968.608345" CO2_abs="244142.301747" HC_abs="17.273004" PMx_abs="3.755194" NOx_abs="91.213581" fuel_abs="104.946659" electricity_abs="0"/>
    </tripinfo>
    <tripinfo id="L2-CV-18" depart="228.00" departLane="bottom-approaching_0" departPos="5.10" departSpeed="0.00" departDelay="0.00" arrival="351.70" arrivalLane="top-exit_0" arrivalPos="486.40" arrivalSpeed="16.45" duration="123.70" routeLength="994.90" waitingTime="45.50" waitingCount="26" stopTime="0.00" timeLoss="63.28" rerouteNo="0" devices="tripinfo_L2-CV-18 emissions_L2-CV-18 ssm_L2-CV-18 toc_L2-CV-18 driverstateL2-CV-18" vType="L2-CV-48" speedFactor="0.99" vaporized="">
        <emissions CO_abs="8159.681712" CO2_abs="315391.292709" HC_abs="42.694890" PMx_abs="5.393723" NOx_abs="124.051380" fuel_abs="135.576378" electricity_abs="0"/>
    </tripinfo>
    <tripinfo id="L0-HDV-9" depart="282.00" departLane="top-approaching_0" departPos="5.10" departSpeed="0.00" departDelay="0.00" arrival="352.60" arrivalLane="bottom-exit_1" arrivalPos="486.40" arrivalSpeed="20.70" duration="70.60" routeLength="994.90" waitingTime="0.00" waitingCount="0" stopTime="0.00" timeLoss="22.47" rerouteNo="0" devices="tripinfo_L0-HDV-9 emissions_L0-HDV-9 ssm_L0-HDV-9" vType="L0-HDV-87" speedFactor="1.24" vaporized="">
        <emissions CO_abs="3921.882340" CO2_abs="264534.896894" HC_abs="24.137889" PMx_abs="4.864299" NOx_abs="106.205118" fuel_abs="113.712146" electricity_abs="0"/>
    </tripinfo>
    <tripinfo id="L0-HDV-8" depart="273.90" departLane="bottom-approaching_0" departPos="5.10" departSpeed="0.00" departDelay="9.90" arrival="353.00" arrivalLane="top-exit_0" arrivalPos="486.40" arrivalSpeed="19.09" duration="79.10" routeLength="994.90" waitingTime="0.00" waitingCount="0" stopTime="0.00" timeLoss="26.94" rerouteNo="0" devices="tripinfo_L0-HDV-8 emissions_L0-HDV-8 ssm_L0-HDV-8" vType="L0-HDV-61" speedFactor="1.15" vaporized="">
        <emissions CO_abs="3224.930050" CO2_abs="215836.226632" HC_abs="19.101187" PMx_abs="3.799013" NOx_abs="85.413582" fuel_abs="92.778855" electricity_abs="0"/>
    </tripinfo>
    <tripinfo id="L2-AV-23" depart="258.00" departLane="bottom-approaching_0" departPos="5.10" departSpeed="0.00" departDelay="0.00" arrival="353.30" arrivalLane="top-exit_1" arrivalPos="486.40" arrivalSpeed="17.85" duration="95.30" routeLength="994.90" waitingTime="0.00" waitingCount="0" stopTime="0.00" timeLoss="39.45" rerouteNo="0" devices="tripinfo_L2-AV-23 emissions_L2-AV-23 ssm_L2-AV-23 toc_L2-AV-23 driverstateL2-AV-23" vType="L2-AV-95" speedFactor="1.07" vaporized="">
        <emissions CO_abs="2695.084326" CO2_abs="243238.978522" HC_abs="16.038951" PMx_abs="3.468924" NOx_abs="89.232071" fuel_abs="104.558551" electricity_abs="0"/>
    </tripinfo>