<?xml version="1.0" encoding="UTF-8"?>

<!-- generated on 03/28/21 23:30:39 by Eclipse SUMO sumo Version 1.8.0
<configuration xmlns:xsi="http://www.w3.org/2001/XMLSchema-instance" xsi:noNamespaceSchemaLocation="http://sumo.dlr.de/xsd/sumoConfiguration.xsd">

    <input>
        <net-file value="Roadworks\BaselinePenetration1\../RoadworksIntersection.net.xml"/>
        <route-files value="Roadworks\BaselinePenetration1\Route-Files/L4-CV-Route.rou.xml,Roadworks\BaselinePenetration1\Route-Files/L4-AV-Route.rou.xml,Roadworks\BaselinePenetration1\Route-Files/L2-CV-Route.rou.xml,Roadworks\BaselinePenetration1\Route-Files/L2-AV-Route.rou.xml,Roadworks\BaselinePenetration1\Route-Files/L0-HDV-Route.rou.xml"/>
        <additional-files value="Roadworks\BaselinePenetration1\../Additional-Files/Roadworks-Detectors.add.xml,Roadworks\BaselinePenetration1\../Additional-Files/Roadworks-Rerouters.add.xml,Roadworks\BaselinePenetration1\../Additional-Files/Roadworks-Traffic-lights.add.xml,Roadworks\BaselinePenetration1\../Additional-Files/Roadworks-Traffic-Signs.add.xml,Roadworks\BaselinePenetration1\PreparingVehicleModels/Vehicle-Models/L4-CV.add.xml,Roadworks\BaselinePenetration1\PreparingVehicleModels/Vehicle-Models/L4-CV-Left.add.xml,Roadworks\BaselinePenetration1\PreparingVehicleModels/Vehicle-Models/L4-CV-Right.add.xml,Roadworks\BaselinePenetration1\PreparingVehicleModels/Vehicle-Models/L4-AV.add.xml,Roadworks\BaselinePenetration1\PreparingVehicleModels/Vehicle-Models/L4-AV-Left.add.xml,Roadworks\BaselinePenetration1\PreparingVehicleModels/Vehicle-Models/L4-AV-Right.add.xml,Roadworks\BaselinePenetration1\PreparingVehicleModels/Vehicle-Models/L2-CV.add.xml,Roadworks\BaselinePenetration1\PreparingVehicleModels/Vehicle-Models/L2-CV-Left.add.xml,Roadworks\BaselinePenetration1\PreparingVehicleModels/Vehicle-Models/L2-CV-Right.add.xml,Roadworks\BaselinePenetration1\PreparingVehicleModels/Vehicle-Models/L2-AV.add.xml,Roadworks\BaselinePenetration1\PreparingVehicleModels/Vehicle-Models/L2-AV-Left.add.xml,Roadworks\BaselinePenetration1\PreparingVehicleModels/Vehicle-Models/L2-AV-Right.add.xml,Roadworks\BaselinePenetration1\PreparingVehicleModels/Vehicle-Models/L0-HDV.add.xml,Roadworks\BaselinePenetration1\PreparingVehicleModels/Vehicle-Models/L0-HDV-Left.add.xml,Roadworks\BaselinePenetration1\PreparingVehicleModels/Vehicle-Models/L0-HDV-Straight.add.xml"/>
    </input>

    <output>
        <tripinfo-output value="Roadworks\BaselinePenetration1\Output-Files\TripInfo.xml"/>
    </output>

    <time>
        <begin value="0"/>
        <step-length value="0.1"/>
    </time>

    <processing>
        <ignore-route-errors value="true"/>
        <waiting-time-memory value="300"/>
        <default.action-step-length value="0.1"/>
    </processing>

    <report>
        <no-warnings value="true"/>
    </report>

    <emissions>
        <device.emissions.probability value="1"/>
    </emissions>

    <traci_server>
        <remote-port value="49597"/>
    </traci_server>

    <gui_only>
        <start value="true"/>
        <tracker-interval value="0.1"/>
    </gui_only>

</configuration>
-->

<tripinfos xmlns:xsi="http://www.w3.org/2001/XMLSchema-instance" xsi:noNamespaceSchemaLocation="http://sumo.dlr.de/xsd/tripinfo_file.xsd">
    <tripinfo id="L2-CV-1" depart="7.00" departLane="left-long-approaching_0" departPos="5.10" departSpeed="0.00" departDelay="0.00" arrival="99.40" arrivalLane="bottom-exit_0" arrivalPos="489.60" arrivalSpeed="16.59" duration="92.40" routeLength="1383.54" waitingTime="0.00" waitingCount="0" stopTime="0.00" timeLoss="6.49" rerouteNo="0" devices="tripinfo_L2-CV-1 emissions_L2-CV-1 ssm_L2-CV-1 toc_L2-CV-1 driverstateL2-CV-1" vType="L2-CV-Right-28@L2-CV-1" speedFactor="1.00" vaporized="">
        <emissions CO_abs="1936.631203" CO2_abs="290682.140187" HC_abs="11.365130" PMx_abs="3.281194" NOx_abs="99.221000" fuel_abs="124.952487" electricity_abs="0"/>
    </tripinfo>
    <tripinfo id="L0-HDV-4" depart="7.10" departLane="right-approaching_0" departPos="5.10" departSpeed="0.00" departDelay="0.06" arrival="111.20" arrivalLane="left-exit_0" arrivalPos="831.00" arrivalSpeed="16.63" duration="104.10" routeLength="1399.16" waitingTime="2.50" waitingCount="1" stopTime="0.00" timeLoss="17.90" rerouteNo="0" devices="tripinfo_L0-HDV-4 emissions_L0-HDV-4 ssm_L0-HDV-4" vType="L0-HDV-85" speedFactor="1.00" vaporized="">
        <emissions CO_abs="3370.729682" CO2_abs="256163.828102" HC_abs="20.547952" PMx_abs="3.854029" NOx_abs="96.843587" fuel_abs="110.114637" electricity_abs="0"/>
    </tripinfo>
    <tripinfo id="L4-CV-2" depart="40.00" departLane="right-approaching_0" departPos="5.10" departSpeed="0.00" departDelay="0.00" arrival="114.00" arrivalLane="bottom-exit_0" arrivalPos="489.60" arrivalSpeed="16.04" duration="74.00" routeLength="992.90" waitingTime="0.10" waitingCount="1" stopTime="0.00" timeLoss="11.01" rerouteNo="0" devices="tripinfo_L4-CV-2 emissions_L4-CV-2 ssm_L4-CV-2 toc_L4-CV-2 driverstateL4-CV-2" vType="L4-CV-95@L4-CV-2" speedFactor="0.96" vaporized="">
        <emissions CO_abs="2115.367662" CO2_abs="230247.510027" HC_abs="12.538893" PMx_abs="2.735170" NOx_abs="81.119809" fuel_abs="98.974385" electricity_abs="0"/>
    </tripinfo>
    <tripinfo id="L0-HDV-11" depart="22.20" departLane="left-long-approaching_0" departPos="5.10" departSpeed="0.00" departDelay="2.84" arrival="119.10" arrivalLane="top-exit_1" arrivalPos="486.40" arrivalSpeed="19.17" duration="96.90" routeLength="1393.12" waitingTime="0.00" waitingCount="0" stopTime="0.00" timeLoss="22.02" rerouteNo="1" devices="tripinfo_L0-HDV-11 emissions_L0-HDV-11 ssm_L0-HDV-11" vType="L0-HDV-Left-13@L0-HDV-11" speedFactor="1.15" vaporized="">
        <emissions CO_abs="3288.257464" CO2_abs="273018.070511" HC_abs="21.328839" PMx_abs="4.559908" NOx_abs="106.604451" fuel_abs="117.358742" electricity_abs="0"/>
    </tripinfo>
    <tripinfo id="L0-HDV-9" depart="15.90" departLane="left-long-approaching_0" departPos="5.10" departSpeed="0.00" departDelay="0.06" arrival="124.30" arrivalLane="top-exit_0" arrivalPos="486.40" arrivalSpeed="13.55" duration="108.40" routeLength="1393.12" waitingTime="0.00" waitingCount="0" stopTime="0.00" timeLoss="3.29" rerouteNo="1" devices="tripinfo_L0-HDV-9 emissions_L0-HDV-9 ssm_L0-HDV-9" vType="L0-HDV-Left-29@L0-HDV-9" speedFactor="0.82" vaporized="">
        <emissions CO_abs="2447.465684" CO2_abs="239114.109983" HC_abs="16.649520" PMx_abs="3.554812" NOx_abs="91.738339" fuel_abs="102.785066" electricity_abs="0"/>
    </tripinfo>
    <tripinfo id="L2-AV-4" depart="28.00" departLane="right-approaching_0" departPos="5.10" departSpeed="0.00" departDelay="0.00" arrival="134.90" arrivalLane="left-exit_0" arrivalPos="831.00" arrivalSpeed="15.02" duration="106.90" routeLength="1399.16" waitingTime="0.80" waitingCount="1" stopTime="0.00" timeLoss="11.47" rerouteNo="0" devices="tripinfo_L2-AV-4 emissions_L2-AV-4 ssm_L2-AV-4 toc_L2-AV-4 driverstateL2-AV-4" vType="L2-AV-39@L2-AV-4" speedFactor="0.90" vaporized="">
        <emissions CO_abs="2404.033025" CO2_abs="280441.895425" HC_abs="14.333927" PMx_abs="3.165245" NOx_abs="98.003018" fuel_abs="120.551039" electricity_abs="0"/>
    </tripinfo>
    <tripinfo id="L2-AV-0" depart="3.60" departLane="bottom-approaching_0" departPos="5.10" departSpeed="0.00" departDelay="3.60" arrival="142.40" arrivalLane="top-exit_0" arrivalPos="486.40" arrivalSpeed="16.85" duration="138.80" routeLength="995.17" waitingTime="66.70" waitingCount="1" stopTime="0.00" timeLoss="79.66" rerouteNo="0" devices="tripinfo_L2-AV-0 emissions_L2-AV-0 ssm_L2-AV-0 toc_L2-AV-0 driverstateL2-AV-0" vType="L2-AV-32@L2-AV-0" speedFactor="1.01" vaporized="">
        <emissions CO_abs="13392.387494" CO2_abs="416954.122440" HC_abs="68.088821" PMx_abs="7.657240" NOx_abs="167.587898" fuel_abs="179.236264" electricity_abs="0"/>
    </tripinfo>
    <tripinfo id="L2-AV-3" depart="21.00" departLane="top-approaching_0" departPos="5.10" departSpeed="0.00" departDelay="0.00" arrival="144.20" arrivalLane="bottom-exit_1" arrivalPos="489.60" arrivalSpeed="17.37" duration="123.20" routeLength="995.17" waitingTime="0.00" waitingCount="0" stopTime="0.00" timeLoss="65.76" rerouteNo="0" devices="tripinfo_L2-AV-3 emissions_L2-AV-3 ssm_L2-AV-3 toc_L2-AV-3 driverstateL2-AV-3" vType="L2-AV-73@L2-AV-3" speedFactor="1.04" vaporized="">
        <emissions CO_abs="2593.289786" CO2_abs="186913.962856" HC_abs="15.012126" PMx_abs="3.035916" NOx_abs="72.290570" fuel_abs="80.346510" electricity_abs="0"/>
    </tripinfo>
    <tripinfo id="L0-HDV-3" depart="5.30" departLane="top-approaching_0" departPos="5.10" departSpeed="0.00" departDelay="0.02" arrival="144.20" arrivalLane="bottom-exit_0" arrivalPos="489.60" arrivalSpeed="15.77" duration="138.90" routeLength="995.17" waitingTime="64.50" waitingCount="1" stopTime="0.00" timeLoss="75.89" rerouteNo="0" devices="tripinfo_L0-HDV-3 emissions_L0-HDV-3 ssm_L0-HDV-3" vType="L0-HDV-42" speedFactor="0.95" vaporized="">
        <emissions CO_abs="13947.642599" CO2_abs="409546.801377" HC_abs="73.098616" PMx_abs="8.559352" NOx_abs="174.769169" fuel_abs="176.051287" electricity_abs="0"/>
    </tripinfo>
    <tripinfo id="L4-CV-0" depart="0.00" departLane="bottom-approaching_0" departPos="5.10" departSpeed="0.00" departDelay="0.00" arrival="144.50" arrivalLane="right-exit_0" arrivalPos="486.40" arrivalSpeed="16.26" duration="144.50" routeLength="979.93" waitingTime="67.20" waitingCount="1" stopTime="0.00" timeLoss="83.25" rerouteNo="0" devices="tripinfo_L4-CV-0 emissions_L4-CV-0 ssm_L4-CV-0 toc_L4-CV-0 driverstateL4-CV-0" vType="L4-CV-89@L4-CV-0" speedFactor="0.98" vaporized="">
        <emissions CO_abs="13878.288701" CO2_abs="420723.094367" HC_abs="70.454456" PMx_abs="7.642983" NOx_abs="169.384451" fuel_abs="180.856820" electricity_abs="0"/>
    </tripinfo>
    <tripinfo id="L0-HDV-1" depart="6.90" departLane="bottom-approaching_0" departPos="5.10" departSpeed="0.00" departDelay="5.14" arrival="146.00" arrivalLane="right-exit_0" arrivalPos="486.40" arrivalSpeed="17.87" duration="139.10" routeLength="979.93" waitingTime="61.40" waitingCount="1" stopTime="0.00" timeLoss="85.63" rerouteNo="0" devices="tripinfo_L0-HDV-1 emissions_L0-HDV-1 ssm_L0-HDV-1" vType="L0-HDV-23" speedFactor="1.12" vaporized="">
        <emissions CO_abs="14045.262780" CO2_abs="415551.799494" HC_abs="73.641454" PMx_abs="8.463924" NOx_abs="175.226231" fuel_abs="178.632961" electricity_abs="0"/>
    </tripinfo>
    <tripinfo id="L0-HDV-12" depart="21.20" departLane="bottom-approaching_0" departPos="5.10" departSpeed="0.00" departDelay="0.08" arrival="146.00" arrivalLane="right-exit_1" arrivalPos="486.40" arrivalSpeed="20.42" duration="124.80" routeLength="979.93" waitingTime="44.50" waitingCount="2" stopTime="0.00" timeLoss="76.02" rerouteNo="0" devices="tripinfo_L0-HDV-12 emissions_L0-HDV-12 ssm_L0-HDV-12" vType="L0-HDV-8" speedFactor="1.23" vaporized="">
        <emissions CO_abs="4887.097530" CO2_abs="264180.505010" HC_abs="28.274850" PMx_abs="4.785718" NOx_abs="105.706966" fuel_abs="113.560699" electricity_abs="0"/>
    </tripinfo>
    <tripinfo id="L2-CV-4" depart="28.00" departLane="top-approaching_0" departPos="5.10" departSpeed="0.00" departDelay="0.00" arrival="146.50" arrivalLane="bottom-exit_1" arrivalPos="489.60" arrivalSpeed="17.02" duration="118.50" routeLength="995.17" waitingTime="0.00" waitingCount="0" stopTime="0.00" timeLoss="59.96" rerouteNo="0" devices="tripinfo_L2-CV-4 emissions_L2-CV-4 ssm_L2-CV-4 toc_L2-CV-4 driverstateL2-CV-4" vType="L2-CV-39@L2-CV-4" speedFactor="1.02" vaporized="">
        <emissions CO_abs="2991.159367" CO2_abs="252382.161232" HC_abs="17.306272" PMx_abs="3.517128" NOx_abs="92.408975" fuel_abs="108.489049" electricity_abs="0"/>
    </tripinfo>
    <tripinfo id="L0-HDV-0" depart="3.70" departLane="bottom-approaching_0" departPos="5.10" departSpeed="0.00" departDelay="3.70" arrival="146.80" arrivalLane="top-exit_0" arrivalPos="486.40" arrivalSpeed="15.89" duration="143.10" routeLength="995.17" waitingTime="65.10" waitingCount="1" stopTime="0.00" timeLoss="80.49" rerouteNo="0" devices="tripinfo_L0-HDV-0 emissions_L0-HDV-0 ssm_L0-HDV-0" vType="L0-HDV-88" speedFactor="0.96" vaporized="">
        <emissions CO_abs="13567.616224" CO2_abs="374705.928461" HC_abs="70.364794" PMx_abs="7.612645" NOx_abs="158.157852" fuel_abs="161.075326" electricity_abs="0"/>
    </tripinfo>
    <tripinfo id="L2-AV-1" depart="10.60" departLane="bottom-approaching_0" departPos="5.10" departSpeed="0.00" departDelay="3.60" arrival="148.40" arrivalLane="right-exit_0" arrivalPos="486.40" arrivalSpeed="16.95" duration="137.80" routeLength="979.93" waitingTime="44.10" waitingCount="1" stopTime="0.00" timeLoss="79.08" rerouteNo="0" devices="tripinfo_L2-AV-1 emissions_L2-AV-1 ssm_L2-AV-1 toc_L2-AV-1 driverstateL2-AV-1" vType="L2-AV-30@L2-AV-1" speedFactor="1.02" vaporized="">
        <emissions CO_abs="3318.598655" CO2_abs="253430.535893" HC_abs="18.652917" PMx_abs="3.563982" NOx_abs="93.249591" fuel_abs="108.939865" electricity_abs="0"/>
    </tripinfo>
    <tripinfo id="L4-AV-2" depart="40.00" departLane="bottom-approaching_0" departPos="5.10" departSpeed="0.00" departDelay="0.00" arrival="150.30" arrivalLane="right-exit_0" arrivalPos="486.40" arrivalSpeed="19.78" duration="110.30" routeLength="979.93" waitingTime="0.00" waitingCount="0" stopTime="0.00" timeLoss="60.48" rerouteNo="0" devices="tripinfo_L4-AV-2 emissions_L4-AV-2 ssm_L4-AV-2 toc_L4-AV-2 driverstateL4-AV-2" vType="L4-AV-0@L4-AV-2" speedFactor="1.20" vaporized="">
        <emissions CO_abs="3784.123922" CO2_abs="230133.806124" HC_abs="22.064679" PMx_abs="3.774859" NOx_abs="90.202387" fuel_abs="98.925440" electricity_abs="0"/>
    </tripinfo>
    <tripinfo id="L2-CV-9" depart="63.90" departLane="top-approaching_0" departPos="5.10" departSpeed="0.00" departDelay="0.90" arrival="151.10" arrivalLane="bottom-exit_1" arrivalPos="489.60" arrivalSpeed="17.47" duration="87.20" routeLength="995.17" waitingTime="0.00" waitingCount="0" stopTime="0.00" timeLoss="30.11" rerouteNo="0" devices="tripinfo_L2-CV-9 emissions_L2-CV-9 ssm_L2-CV-9 toc_L2-CV-9 driverstateL2-CV-9" vType="L2-CV-57@L2-CV-9" speedFactor="1.05" vaporized="">
        <emissions CO_abs="3137.828240" CO2_abs="245805.665674" HC_abs="18.659530" PMx_abs="3.591620" NOx_abs="91.612183" fuel_abs="105.662105" electricity_abs="0"/>
    </tripinfo>
    <tripinfo id="L0-HDV-6" depart="12.80" departLane="bottom-approaching_0" departPos="5.10" departSpeed="0.00" departDelay="2.24" arrival="151.30" arrivalLane="top-exit_0" arrivalPos="486.40" arrivalSpeed="14.97" duration="138.50" routeLength="995.17" waitingTime="54.90" waitingCount="1" stopTime="0.00" timeLoss="71.97" rerouteNo="0" devices="tripinfo_L0-HDV-6 emissions_L0-HDV-6 ssm_L0-HDV-6" vType="L0-HDV-68" speedFactor="0.90" vaporized="">
        <emissions CO_abs="11701.032988" CO2_abs="331286.192312" HC_abs="60.138789" PMx_abs="6.268015" NOx_abs="136.620734" fuel_abs="142.410782" electricity_abs="0"/>
    </tripinfo>
    <tripinfo id="L0-HDV-35" depart="61.60" departLane="top-approaching_0" departPos="5.10" departSpeed="0.00" departDelay="0.00" arrival="152.50" arrivalLane="bottom-exit_0" arrivalPos="489.60" arrivalSpeed="14.55" duration="90.90" routeLength="995.17" waitingTime="0.00" waitingCount="0" stopTime="0.00" timeLoss="22.71" rerouteNo="0" devices="tripinfo_L0-HDV-35 emissions_L0-HDV-35 ssm_L0-HDV-35" vType="L0-HDV-55" speedFactor="0.88" vaporized="">
        <emissions CO_abs="3331.070725" CO2_abs="200200.368107" HC_abs="19.646518" PMx_abs="3.238943" NOx_abs="78.537266" fuel_abs="86.058356" electricity_abs="0"/>
    </tripinfo>
    <tripinfo id="L2-CV-12" depart="84.00" departLane="top-approaching_0" departPos="5.10" departSpeed="0.00" departDelay="0.00" arrival="153.20" arrivalLane="bottom-exit_1" arrivalPos="489.60" arrivalSpeed="16.62" duration="69.20" routeLength="995.17" waitingTime="0.10" waitingCount="1" stopTime="0.00" timeLoss="9.23" rerouteNo="0" devices="tripinfo_L2-CV-12 emissions_L2-CV-12 ssm_L2-CV-12 toc_L2-CV-12 driverstateL2-CV-12" vType="L2-CV-33@L2-CV-12" speedFactor="1.00" vaporized="">
        <emissions CO_abs="1597.103066" CO2_abs="197731.571132" HC_abs="9.600640" PMx_abs="2.281404" NOx_abs="68.179835" fuel_abs="84.997043" electricity_abs="0"/>
    </tripinfo>
    <tripinfo id="L0-HDV-23" depart="43.90" departLane="bottom-approaching_0" departPos="5.10" departSpeed="0.00" departDelay="3.42" arrival="153.30" arrivalLane="top-exit_1" arrivalPos="486.40" arrivalSpeed="17.00" duration="109.40" routeLength="995.17" waitingTime="33.20" waitingCount="1" stopTime="0.00" timeLoss="50.75" rerouteNo="0" devices="tripinfo_L0-HDV-23 emissions_L0-HDV-23 ssm_L0-HDV-23" vType="L0-HDV-11" speedFactor="1.02" vaporized="">
        <emissions CO_abs="8395.453975" CO2_abs="281767.892473" HC_abs="44.326770" PMx_abs="5.399420" NOx_abs="116.218464" fuel_abs="121.122878" electricity_abs="0"/>
    </tripinfo>
    <tripinfo id="L0-HDV-24" depart="47.30" departLane="bottom-approaching_0" departPos="5.10" departSpeed="0.00" departDelay="5.06" arrival="154.50" arrivalLane="right-exit_0" arrivalPos="486.40" arrivalSpeed="16.46" duration="107.20" routeLength="979.93" waitingTime="0.00" waitingCount="0" stopTime="0.00" timeLoss="46.98" rerouteNo="0" devices="tripinfo_L0-HDV-24 emissions_L0-HDV-24 ssm_L0-HDV-24" vType="L0-HDV-3" speedFactor="0.99" vaporized="">
        <emissions CO_abs="6042.015317" CO2_abs="287983.369041" HC_abs="34.254162" PMx_abs="5.507443" NOx_abs="119.507051" fuel_abs="123.792556" electricity_abs="0"/>
    </tripinfo>
    <tripinfo id="L0-HDV-49" depart="88.00" departLane="top-approaching_0" departPos="5.10" departSpeed="0.00" departDelay="1.76" arrival="154.70" arrivalLane="bottom-exit_1" arrivalPos="489.60" arrivalSpeed="18.36" duration="66.70" routeLength="995.17" waitingTime="0.00" waitingCount="0" stopTime="0.00" timeLoss="16.67" rerouteNo="0" devices="tripinfo_L0-HDV-49 emissions_L0-HDV-49 ssm_L0-HDV-49" vType="L0-HDV-23" speedFactor="1.20" vaporized="">
        <emissions CO_abs="2410.952820" CO2_abs="199664.447332" HC_abs="15.557759" PMx_abs="3.289655" NOx_abs="77.282323" fuel_abs="85.827272" electricity_abs="0"/>
    </tripinfo>
    <tripinfo id="L0-HDV-19" depart="33.50" departLane="bottom-approaching_0" departPos="5.10" departSpeed="0.00" departDelay="0.06" arrival="155.30" arrivalLane="top-exit_0" arrivalPos="486.40" arrivalSpeed="14.60" duration="121.80" routeLength="995.17" waitingTime="33.40" waitingCount="1" stopTime="0.00" timeLoss="53.67" rerouteNo="0" devices="tripinfo_L0-HDV-19 emissions_L0-HDV-19 ssm_L0-HDV-19" vType="L0-HDV-0" speedFactor="0.88" vaporized="">
        <emissions CO_abs="8718.159060" CO2_abs="288267.135745" HC_abs="46.087292" PMx_abs="5.138710" NOx_abs="117.030872" fuel_abs="123.917371" electricity_abs="0"/>
    </tripinfo>
    <tripinfo id="L0-HDV-53" depart="93.30" departLane="top-approaching_0" departPos="5.10" departSpeed="0.00" departDelay="0.02" arrival="158.40" arrivalLane="bottom-exit_0" arrivalPos="489.60" arrivalSpeed="17.44" duration="65.10" routeLength="995.17" waitingTime="0.00" waitingCount="0" stopTime="0.00" timeLoss="8.06" rerouteNo="0" devices="tripinfo_L0-HDV-53 emissions_L0-HDV-53 ssm_L0-HDV-53" vType="L0-HDV-50" speedFactor="1.05" vaporized="">
        <emissions CO_abs="1790.958543" CO2_abs="171548.350695" HC_abs="11.882022" PMx_abs="2.615939" NOx_abs="64.407680" fuel_abs="73.741468" electricity_abs="0"/>
    </tripinfo>
    <tripinfo id="L2-AV-6" depart="44.00" departLane="bottom-approaching_0" departPos="5.10" departSpeed="0.00" departDelay="2.00" arrival="159.20" arrivalLane="top-exit_0" arrivalPos="486.40" arrivalSpeed="14.12" duration="115.20" routeLength="995.17" waitingTime="0.00" waitingCount="0" stopTime="0.00" timeLoss="44.60" rerouteNo="0" devices="tripinfo_L2-AV-6 emissions_L2-AV-6 ssm_L2-AV-6 toc_L2-AV-6 driverstateL2-AV-6" vType="L2-AV-57@L2-AV-6" speedFactor="0.85" vaporized="">
        <emissions CO_abs="2889.261295" CO2_abs="235109.452877" HC_abs="16.889286" PMx_abs="2.764643" NOx_abs="84.347973" fuel_abs="101.064989" electricity_abs="0"/>
    </tripinfo>
    <tripinfo id="L2-CV-7" depart="50.20" departLane="bottom-approaching_0" departPos="5.10" departSpeed="0.00" departDelay="1.20" arrival="159.60" arrivalLane="top-exit_1" arrivalPos="486.40" arrivalSpeed="14.98" duration="109.40" routeLength="995.17" waitingTime="0.00" waitingCount="0" stopTime="0.00" timeLoss="42.86" rerouteNo="0" devices="tripinfo_L2-CV-7 emissions_L2-CV-7 ssm_L2-CV-7 toc_L2-CV-7 driverstateL2-CV-7" vType="L2-CV-27@L2-CV-7" speedFactor="0.90" vaporized="">
        <emissions CO_abs="2933.847474" CO2_abs="239557.086521" HC_abs="17.318364" PMx_abs="2.986034" NOx_abs="86.747656" fuel_abs="102.976650" electricity_abs="0"/>
    </tripinfo>
    <tripinfo id="L0-HDV-46" depart="81.00" departLane="bottom-approaching_0" departPos="5.10" departSpeed="0.00" departDelay="0.04" arrival="159.90" arrivalLane="right-exit_0" arrivalPos="486.40" arrivalSpeed="15.70" duration="78.90" routeLength="979.93" waitingTime="0.00" waitingCount="0" stopTime="0.00" timeLoss="15.84" rerouteNo="0" devices="tripinfo_L0-HDV-46 emissions_L0-HDV-46 ssm_L0-HDV-46" vType="L0-HDV-23" speedFactor="0.95" vaporized="">
        <emissions CO_abs="2903.872432" CO2_abs="211977.773910" HC_abs="18.059895" PMx_abs="3.392951" NOx_abs="82.954663" fuel_abs="91.120540" electricity_abs="0"/>
    </tripinfo>
    <tripinfo id="L0-HDV-54" depart="97.00" departLane="top-approaching_0" departPos="5.10" departSpeed="0.00" departDelay="1.96" arrival="161.00" arrivalLane="bottom-exit_0" arrivalPos="489.60" arrivalSpeed="17.18" duration="64.00" routeLength="995.17" waitingTime="0.00" waitingCount="0" stopTime="0.00" timeLoss="6.01" rerouteNo="0" devices="tripinfo_L0-HDV-54 emissions_L0-HDV-54 ssm_L0-HDV-54" vType="L0-HDV-59" speedFactor="1.03" vaporized="">
        <emissions CO_abs="2333.199571" CO2_abs="208744.411033" HC_abs="15.409436" PMx_abs="3.629031" NOx_abs="82.441746" fuel_abs="89.729862" electricity_abs="0"/>
    </tripinfo>
    <tripinfo id="L0-HDV-29" depart="53.30" departLane="bottom-approaching_0" departPos="5.10" departSpeed="0.00" departDelay="2.26" arrival="161.60" arrivalLane="top-exit_1" arrivalPos="486.40" arrivalSpeed="17.51" duration="108.30" routeLength="995.17" waitingTime="0.00" waitingCount="0" stopTime="0.00" timeLoss="51.64" rerouteNo="0" devices="tripinfo_L0-HDV-29 emissions_L0-HDV-29 ssm_L0-HDV-29" vType="L0-HDV-78" speedFactor="1.06" vaporized="">
        <emissions CO_abs="4849.734575" CO2_abs="249927.073235" HC_abs="27.821736" PMx_abs="4.308105" NOx_abs="100.435924" fuel_abs="107.434074" electricity_abs="0"/>
    </tripinfo>
    <tripinfo id="L0-HDV-40" depart="70.40" departLane="top-approaching_0" departPos="5.10" departSpeed="0.00" departDelay="0.00" arrival="162.40" arrivalLane="left-exit_1" arrivalPos="831.00" arrivalSpeed="21.74" duration="92.00" routeLength="1386.28" waitingTime="8.90" waitingCount="1" stopTime="0.00" timeLoss="26.44" rerouteNo="0" devices="tripinfo_L0-HDV-40 emissions_L0-HDV-40 ssm_L0-HDV-40" vType="L0-HDV-33" speedFactor="1.31" vaporized="">
        <emissions CO_abs="5910.074948" CO2_abs="341958.405477" HC_abs="35.089044" PMx_abs="6.704699" NOx_abs="138.616063" fuel_abs="146.993396" electricity_abs="0"/>
    </tripinfo>
    <tripinfo id="L4-CV-3" depart="60.00" departLane="bottom-approaching_0" departPos="5.10" departSpeed="0.00" departDelay="0.00" arrival="163.00" arrivalLane="top-exit_0" arrivalPos="486.40" arrivalSpeed="15.86" duration="103.00" routeLength="995.17" waitingTime="0.00" waitingCount="0" stopTime="0.00" timeLoss="40.11" rerouteNo="0" devices="tripinfo_L4-CV-3 emissions_L4-CV-3 ssm_L4-CV-3 toc_L4-CV-3 driverstateL4-CV-3" vType="L4-CV-41@L4-CV-3" speedFactor="0.95" vaporized="">
        <emissions CO_abs="3038.585864" CO2_abs="245515.869860" HC_abs="18.259488" PMx_abs="3.211477" NOx_abs="89.808717" fuel_abs="105.537976" electricity_abs="0"/>
    </tripinfo>
    <tripinfo id="L2-AV-12" depart="84.90" departLane="bottom-approaching_0" departPos="5.10" departSpeed="0.00" departDelay="0.90" arrival="163.40" arrivalLane="right-exit_0" arrivalPos="486.40" arrivalSpeed="14.82" duration="78.50" routeLength="979.93" waitingTime="0.00" waitingCount="0" stopTime="0.00" timeLoss="11.32" rerouteNo="0" devices="tripinfo_L2-AV-12 emissions_L2-AV-12 ssm_L2-AV-12 toc_L2-AV-12 driverstateL2-AV-12" vType="L2-AV-3@L2-AV-12" speedFactor="0.89" vaporized="">
        <emissions CO_abs="2205.985099" CO2_abs="224384.459156" HC_abs="13.401894" PMx_abs="2.864260" NOx_abs="81.665508" fuel_abs="96.453867" electricity_abs="0"/>
    </tripinfo>
    <tripinfo id="L0-HDV-38" depart="66.90" departLane="bottom-approaching_0" departPos="5.10" departSpeed="0.00" departDelay="0.02" arrival="163.90" arrivalLane="top-exit_1" arrivalPos="486.40" arrivalSpeed="20.35" duration="97.00" routeLength="995.17" waitingTime="0.00" waitingCount="0" stopTime="0.00" timeLoss="48.50" rerouteNo="0" devices="tripinfo_L0-HDV-38 emissions_L0-HDV-38 ssm_L0-HDV-38" vType="L0-HDV-10" speedFactor="1.23" vaporized="">
        <emissions CO_abs="5081.306450" CO2_abs="291813.924558" HC_abs="29.812712" PMx_abs="4.836423" NOx_abs="114.768995" fuel_abs="125.439550" electricity_abs="0"/>
    </tripinfo>
    <tripinfo id="L0-HDV-18" depart="35.20" departLane="top-approaching_0" departPos="5.10" departSpeed="0.00" departDelay="3.52" arrival="164.70" arrivalLane="left-exit_0" arrivalPos="831.00" arrivalSpeed="18.18" duration="129.50" routeLength="1386.28" waitingTime="35.00" waitingCount="1" stopTime="0.00" timeLoss="50.90" rerouteNo="0" devices="tripinfo_L0-HDV-18 emissions_L0-HDV-18 ssm_L0-HDV-18" vType="L0-HDV-85" speedFactor="1.09" vaporized="">
        <emissions CO_abs="8966.826014" CO2_abs="355560.158094" HC_abs="48.599744" PMx_abs="6.501662" NOx_abs="142.593780" fuel_abs="152.843087" electricity_abs="0"/>
    </tripinfo>
    <tripinfo id="L0-HDV-55" depart="97.10" departLane="top-approaching_0" departPos="5.10" departSpeed="0.00" departDelay="0.30" arrival="165.30" arrivalLane="bottom-exit_0" arrivalPos="489.60" arrivalSpeed="16.42" duration="68.20" routeLength="995.17" waitingTime="0.00" waitingCount="0" stopTime="0.00" timeLoss="8.36" rerouteNo="0" devices="tripinfo_L0-HDV-55 emissions_L0-HDV-55 ssm_L0-HDV-55" vType="L0-HDV-27" speedFactor="1.00" vaporized="">
        <emissions CO_abs="3038.519610" CO2_abs="235562.245491" HC_abs="19.243762" PMx_abs="4.295216" NOx_abs="95.278356" fuel_abs="101.257588" electricity_abs="0"/>
    </tripinfo>
    <tripinfo id="L0-HDV-21" depart="38.80" departLane="top-approaching_0" departPos="5.10" departSpeed="0.00" departDelay="1.84" arrival="168.90" arrivalLane="left-exit_0" arrivalPos="831.00" arrivalSpeed="17.27" duration="130.10" routeLength="1386.28" waitingTime="32.80" waitingCount="1" stopTime="0.00" timeLoss="47.44" rerouteNo="0" devices="tripinfo_L0-HDV-21 emissions_L0-HDV-21 ssm_L0-HDV-21" vType="L0-HDV-73" speedFactor="1.04" vaporized="">
        <emissions CO_abs="8652.368764" CO2_abs="351546.853959" HC_abs="47.299257" PMx_abs="6.457271" NOx_abs="141.860212" fuel_abs="151.117648" electricity_abs="0"/>
    </tripinfo>
    <tripinfo id="L0-HDV-16" depart="31.50" departLane="top-approaching_0" departPos="5.10" departSpeed="0.00" departDelay="3.34" arrival="169.20" arrivalLane="right-exit_0" arrivalPos="486.40" arrivalSpeed="18.32" duration="137.70" routeLength="992.21" waitingTime="56.80" waitingCount="3" stopTime="0.00" timeLoss="82.97" rerouteNo="0" devices="tripinfo_L0-HDV-16 emissions_L0-HDV-16 ssm_L0-HDV-16" vType="L0-HDV-23" speedFactor="1.11" vaporized="">
        <emissions CO_abs="13762.951424" CO2_abs="420459.477092" HC_abs="72.475396" PMx_abs="8.480527" NOx_abs="176.654352" fuel_abs="180.742377" electricity_abs="0"/>
    </tripinfo>
    <tripinfo id="L0-HDV-57" depart="103.30" departLane="top-approaching_0" departPos="5.10" departSpeed="0.00" departDelay="2.98" arrival="174.70" arrivalLane="right-exit_0" arrivalPos="486.40" arrivalSpeed="15.21" duration="71.40" routeLength="992.21" waitingTime="0.00" waitingCount="0" stopTime="0.00" timeLoss="5.20" rerouteNo="0" devices="tripinfo_L0-HDV-57 emissions_L0-HDV-57 ssm_L0-HDV-57" vType="L0-HDV-64" speedFactor="0.91" vaporized="">
        <emissions CO_abs="1715.794676" CO2_abs="166893.577741" HC_abs="11.425737" PMx_abs="2.490818" NOx_abs="63.380845" fuel_abs="71.740527" electricity_abs="0"/>
    </tripinfo>
    <tripinfo id="L2-AV-16" depart="112.00" departLane="top-approaching_0" departPos="5.10" departSpeed="0.00" departDelay="0.00" arrival="184.60" arrivalLane="right-exit_0" arrivalPos="486.40" arrivalSpeed="15.82" duration="72.60" routeLength="992.21" waitingTime="0.00" waitingCount="0" stopTime="0.00" timeLoss="8.86" rerouteNo="0" devices="tripinfo_L2-AV-16 emissions_L2-AV-16 ssm_L2-AV-16 toc_L2-AV-16 driverstateL2-AV-16" vType="L2-AV-29@L2-AV-16" speedFactor="0.95" vaporized="">
        <emissions CO_abs="1880.389334" CO2_abs="223226.057802" HC_abs="11.156357" PMx_abs="2.559963" NOx_abs="77.835640" fuel_abs="95.956114" electricity_abs="0"/>
    </tripinfo>
    <tripinfo id="L0-HDV-8" depart="19.40" departLane="bottom-approaching_0" departPos="5.10" departSpeed="0.00" departDelay="5.32" arrival="190.00" arrivalLane="left-exit_0" arrivalPos="831.00" arrivalSpeed="18.61" duration="170.60" routeLength="1396.90" waitingTime="78.60" waitingCount="4" stopTime="0.00" timeLoss="93.88" rerouteNo="0" devices="tripinfo_L0-HDV-8 emissions_L0-HDV-8 ssm_L0-HDV-8" vType="L0-HDV-22" speedFactor="1.13" vaporized="">
        <emissions CO_abs="18045.619697" CO2_abs="566540.950637" HC_abs="95.542019" PMx_abs="12.098304" NOx_abs="241.686347" fuel_abs="243.536851" electricity_abs="0"/>
    </tripinfo>