<?xml version="1.0" encoding="UTF-8"?>

<!-- generated on 03/24/21 21:25:39 by Eclipse SUMO GUI Version 1.8.0
<configuration xmlns:xsi="http://www.w3.org/2001/XMLSchema-instance" xsi:noNamespaceSchemaLocation="http://sumo.dlr.de/xsd/sumoConfiguration.xsd">

    <input>
        <net-file value="Roadworks\BaselinePenetration1\../RoadworksIntersection.net.xml"/>
        <route-files value="Roadworks\BaselinePenetration1\Route-Files/L4-CV-Route.rou.xml,Roadworks\BaselinePenetration1\Route-Files/L4-AV-Route.rou.xml,Roadworks\BaselinePenetration1\Route-Files/L2-CV-Route.rou.xml,Roadworks\BaselinePenetration1\Route-Files/L2-AV-Route.rou.xml,Roadworks\BaselinePenetration1\Route-Files/L0-HDV-Route.rou.xml"/>
        <additional-files value="Roadworks\BaselinePenetration1\../Additional-Files/Roadworks-Detectors.add.xml,Roadworks\BaselinePenetration1\../Additional-Files/Roadworks-Rerouters.add.xml,Roadworks\BaselinePenetration1\../Additional-Files/Roadworks-Traffic-lights.add.xml,Roadworks\BaselinePenetration1\../Additional-Files/Roadworks-Traffic-Signs.add.xml,Roadworks\BaselinePenetration1\PreparingVehicleModels/Vehicle-Models/L4-CV.add.xml,Roadworks\BaselinePenetration1\PreparingVehicleModels/Vehicle-Models/L4-CV-Left.add.xml,Roadworks\BaselinePenetration1\PreparingVehicleModels/Vehicle-Models/L4-CV-Right.add.xml,Roadworks\BaselinePenetration1\PreparingVehicleModels/Vehicle-Models/L4-AV.add.xml,Roadworks\BaselinePenetration1\PreparingVehicleModels/Vehicle-Models/L4-AV-Left.add.xml,Roadworks\BaselinePenetration1\PreparingVehicleModels/Vehicle-Models/L4-AV-Right.add.xml,Roadworks\BaselinePenetration1\PreparingVehicleModels/Vehicle-Models/L2-CV.add.xml,Roadworks\BaselinePenetration1\PreparingVehicleModels/Vehicle-Models/L2-CV-Left.add.xml,Roadworks\BaselinePenetration1\PreparingVehicleModels/Vehicle-Models/L2-CV-Right.add.xml,Roadworks\BaselinePenetration1\PreparingVehicleModels/Vehicle-Models/L2-AV.add.xml,Roadworks\BaselinePenetration1\PreparingVehicleModels/Vehicle-Models/L2-AV-Left.add.xml,Roadworks\BaselinePenetration1\PreparingVehicleModels/Vehicle-Models/L2-AV-Right.add.xml,Roadworks\BaselinePenetration1\PreparingVehicleModels/Vehicle-Models/L0-HDV.add.xml,Roadworks\BaselinePenetration1\PreparingVehicleModels/Vehicle-Models/L0-HDV-Left.add.xml,Roadworks\BaselinePenetration1\PreparingVehicleModels/Vehicle-Models/L0-HDV-Straight.add.xml"/>
    </input>

    <output>
        <tripinfo-output value="Roadworks\BaselinePenetration1\Output-Files\TripInfo.xml"/>
    </output>

    <time>
        <begin value="0"/>
        <step-length value="0.1"/>
    </time>

    <processing>
        <ignore-route-errors value="true"/>
        <waiting-time-memory value="300"/>
        <default.action-step-length value="0.1"/>
    </processing>

    <report>
        <no-warnings value="true"/>
    </report>

    <emissions>
        <device.emissions.probability value="1"/>
    </emissions>

    <traci_server>
        <remote-port value="52460"/>
    </traci_server>

    <gui_only>
        <start value="true"/>
        <tracker-interval value="0.1"/>
    </gui_only>

</configuration>
-->

<tripinfos xmlns:xsi="http://www.w3.org/2001/XMLSchema-instance" xsi:noNamespaceSchemaLocation="http://sumo.dlr.de/xsd/tripinfo_file.xsd">
    <tripinfo id="L2-CV-1" depart="12.00" departLane="right-approaching_0" departPos="5.10" departSpeed="0.00" departDelay="0.00" arrival="82.30" arrivalLane="bottom-exit_0" arrivalPos="489.60" arrivalSpeed="16.85" duration="70.30" routeLength="992.90" waitingTime="0.00" waitingCount="0" stopTime="0.00" timeLoss="10.41" rerouteNo="0" devices="tripinfo_L2-CV-1 emissions_L2-CV-1 ssm_L2-CV-1 toc_L2-CV-1 driverstateL2-CV-1" vType="L2-CV-32@L2-CV-1" speedFactor="1.01" vaporized="">
        <emissions CO_abs="2306.743176" CO2_abs="239025.435887" HC_abs="13.278314" PMx_abs="3.206048" NOx_abs="86.019158" fuel_abs="102.747194" electricity_abs="0"/>
    </tripinfo>
    <tripinfo id="L2-CV-0" depart="0.00" departLane="left-long-approaching_0" departPos="5.10" departSpeed="0.00" departDelay="0.00" arrival="92.40" arrivalLane="bottom-exit_0" arrivalPos="489.60" arrivalSpeed="16.59" duration="92.40" routeLength="1383.54" waitingTime="0.00" waitingCount="0" stopTime="0.00" timeLoss="6.49" rerouteNo="0" devices="tripinfo_L2-CV-0 emissions_L2-CV-0 ssm_L2-CV-0 toc_L2-CV-0 driverstateL2-CV-0" vType="L2-CV-Right-28@L2-CV-0" speedFactor="1.00" vaporized="">
        <emissions CO_abs="1936.631203" CO2_abs="290682.140187" HC_abs="11.365130" PMx_abs="3.281194" NOx_abs="99.221000" fuel_abs="124.952487" electricity_abs="0"/>
    </tripinfo>
    <tripinfo id="L4-CV-7" depart="21.50" departLane="right-approaching_0" departPos="5.10" departSpeed="0.00" departDelay="0.50" arrival="101.90" arrivalLane="bottom-exit_0" arrivalPos="489.60" arrivalSpeed="14.64" duration="80.40" routeLength="992.90" waitingTime="0.00" waitingCount="0" stopTime="0.00" timeLoss="11.50" rerouteNo="0" devices="tripinfo_L4-CV-7 emissions_L4-CV-7 ssm_L4-CV-7 toc_L4-CV-7 driverstateL4-CV-7" vType="L4-CV-22@L4-CV-7" speedFactor="0.88" vaporized="">
        <emissions CO_abs="2151.665741" CO2_abs="230846.169658" HC_abs="13.237771" PMx_abs="2.580979" NOx_abs="81.299111" fuel_abs="99.232001" electricity_abs="0"/>
    </tripinfo>
    <tripinfo id="L4-CV-9" depart="28.90" departLane="right-approaching_0" departPos="5.10" departSpeed="0.00" departDelay="1.90" arrival="104.30" arrivalLane="top-exit_0" arrivalPos="486.40" arrivalSpeed="15.61" duration="75.40" routeLength="979.43" waitingTime="0.10" waitingCount="1" stopTime="0.00" timeLoss="11.55" rerouteNo="0" devices="tripinfo_L4-CV-9 emissions_L4-CV-9 ssm_L4-CV-9 toc_L4-CV-9 driverstateL4-CV-9" vType="L4-CV-81@L4-CV-9" speedFactor="0.94" vaporized="">
        <emissions CO_abs="2241.389552" CO2_abs="230820.226427" HC_abs="13.108299" PMx_abs="2.732002" NOx_abs="81.661908" fuel_abs="99.220649" electricity_abs="0"/>
    </tripinfo>
    <tripinfo id="L4-CV-10" depart="32.90" departLane="right-approaching_0" departPos="5.10" departSpeed="0.00" departDelay="2.90" arrival="104.60" arrivalLane="top-exit_1" arrivalPos="486.40" arrivalSpeed="16.97" duration="71.70" routeLength="979.43" waitingTime="0.00" waitingCount="0" stopTime="0.00" timeLoss="13.01" rerouteNo="0" devices="tripinfo_L4-CV-10 emissions_L4-CV-10 ssm_L4-CV-10 toc_L4-CV-10 driverstateL4-CV-10" vType="L4-CV-59@L4-CV-10" speedFactor="1.02" vaporized="">
        <emissions CO_abs="2155.681660" CO2_abs="174667.607326" HC_abs="13.107042" PMx_abs="2.630477" NOx_abs="66.377158" fuel_abs="75.082444" electricity_abs="0"/>
    </tripinfo>
    <tripinfo id="L2-CV-2" depart="25.40" departLane="right-approaching_0" departPos="5.10" departSpeed="0.00" departDelay="1.40" arrival="122.20" arrivalLane="left-exit_1" arrivalPos="831.00" arrivalSpeed="17.68" duration="96.80" routeLength="1399.16" waitingTime="0.00" waitingCount="0" stopTime="0.00" timeLoss="15.71" rerouteNo="0" devices="tripinfo_L2-CV-2 emissions_L2-CV-2 ssm_L2-CV-2 toc_L2-CV-2 driverstateL2-CV-2" vType="L2-CV-89@L2-CV-2" speedFactor="1.06" vaporized="">
        <emissions CO_abs="2993.210924" CO2_abs="313659.502466" HC_abs="18.298516" PMx_abs="4.296458" NOx_abs="113.143551" fuel_abs="134.829377" electricity_abs="0"/>
    </tripinfo>
    <tripinfo id="L4-CV-6" depart="18.00" departLane="right-approaching_0" departPos="5.10" departSpeed="0.00" departDelay="0.00" arrival="123.00" arrivalLane="left-exit_0" arrivalPos="831.00" arrivalSpeed="16.52" duration="105.00" routeLength="1399.16" waitingTime="3.40" waitingCount="1" stopTime="0.00" timeLoss="18.24" rerouteNo="0" devices="tripinfo_L4-CV-6 emissions_L4-CV-6 ssm_L4-CV-6 toc_L4-CV-6 driverstateL4-CV-6" vType="L4-CV-12@L4-CV-6" speedFactor="0.99" vaporized="">
        <emissions CO_abs="3371.752075" CO2_abs="307205.260152" HC_abs="19.127455" PMx_abs="3.919195" NOx_abs="109.426121" fuel_abs="132.055586" electricity_abs="0"/>
    </tripinfo>
    <tripinfo id="L2-CV-3" depart="43.50" departLane="bottom-approaching_0" departPos="5.10" departSpeed="0.00" departDelay="7.50" arrival="140.20" arrivalLane="right-exit_0" arrivalPos="486.40" arrivalSpeed="17.21" duration="96.70" routeLength="979.93" waitingTime="26.50" waitingCount="1" stopTime="0.00" timeLoss="38.86" rerouteNo="0" devices="tripinfo_L2-CV-3 emissions_L2-CV-3 ssm_L2-CV-3 toc_L2-CV-3 driverstateL2-CV-3" vType="L2-CV-38@L2-CV-3" speedFactor="1.03" vaporized="">
        <emissions CO_abs="6889.383647" CO2_abs="312210.466153" HC_abs="35.934014" PMx_abs="5.121983" NOx_abs="120.024139" fuel_abs="134.208323" electricity_abs="0"/>
    </tripinfo>
    <tripinfo id="L4-CV-3" depart="9.00" departLane="top-approaching_0" departPos="5.10" departSpeed="0.00" departDelay="0.00" arrival="141.00" arrivalLane="bottom-exit_0" arrivalPos="489.60" arrivalSpeed="17.45" duration="132.00" routeLength="995.17" waitingTime="63.40" waitingCount="1" stopTime="0.00" timeLoss="74.93" rerouteNo="0" devices="tripinfo_L4-CV-3 emissions_L4-CV-3 ssm_L4-CV-3 toc_L4-CV-3 driverstateL4-CV-3" vType="L4-CV-23@L4-CV-3" speedFactor="1.05" vaporized="">
        <emissions CO_abs="12895.206194" CO2_abs="412958.659950" HC_abs="65.542517" PMx_abs="7.640086" NOx_abs="165.698800" fuel_abs="177.518360" electricity_abs="0"/>
    </tripinfo>
    <tripinfo id="L4-CV-18" depart="54.00" departLane="top-approaching_0" departPos="5.10" departSpeed="0.00" departDelay="0.00" arrival="142.10" arrivalLane="bottom-exit_1" arrivalPos="489.60" arrivalSpeed="19.65" duration="88.10" routeLength="995.17" waitingTime="13.50" waitingCount="23" stopTime="0.00" timeLoss="37.41" rerouteNo="0" devices="tripinfo_L4-CV-18 emissions_L4-CV-18 ssm_L4-CV-18 toc_L4-CV-18 driverstateL4-CV-18" vType="L4-CV-21@L4-CV-18" speedFactor="1.18" vaporized="">
        <emissions CO_abs="5057.400070" CO2_abs="295872.983985" HC_abs="29.169738" PMx_abs="5.120342" NOx_abs="114.940770" fuel_abs="127.184131" electricity_abs="0"/>
    </tripinfo>
    <tripinfo id="L4-CV-1" depart="3.00" departLane="bottom-approaching_0" departPos="5.10" departSpeed="0.00" departDelay="0.00" arrival="146.60" arrivalLane="top-exit_1" arrivalPos="486.40" arrivalSpeed="16.26" duration="143.60" routeLength="995.17" waitingTime="60.10" waitingCount="1" stopTime="0.00" timeLoss="82.47" rerouteNo="0" devices="tripinfo_L4-CV-1 emissions_L4-CV-1 ssm_L4-CV-1 toc_L4-CV-1 driverstateL4-CV-1" vType="L4-CV-89@L4-CV-1" speedFactor="0.98" vaporized="">
        <emissions CO_abs="10513.469677" CO2_abs="364475.765279" HC_abs="54.166658" PMx_abs="6.288015" NOx_abs="144.195819" fuel_abs="156.676964" electricity_abs="0"/>
    </tripinfo>
    <tripinfo id="L4-CV-21" depart="63.00" departLane="top-approaching_0" departPos="5.10" departSpeed="0.00" departDelay="0.00" arrival="147.20" arrivalLane="bottom-exit_0" arrivalPos="489.60" arrivalSpeed="16.58" duration="84.20" routeLength="995.17" waitingTime="5.80" waitingCount="24" stopTime="0.00" timeLoss="24.09" rerouteNo="0" devices="tripinfo_L4-CV-21 emissions_L4-CV-21 ssm_L4-CV-21 toc_L4-CV-21 driverstateL4-CV-21" vType="L4-CV-41@L4-CV-21" speedFactor="0.99" vaporized="">
        <emissions CO_abs="3544.544898" CO2_abs="262971.022455" HC_abs="19.774697" PMx_abs="3.694051" NOx_abs="96.527363" fuel_abs="113.041056" electricity_abs="0"/>
    </tripinfo>
    <tripinfo id="L4-AV-0" depart="0.00" departLane="bottom-approaching_0" departPos="5.10" departSpeed="0.00" departDelay="0.00" arrival="147.50" arrivalLane="top-exit_0" arrivalPos="486.40" arrivalSpeed="13.99" duration="147.50" routeLength="995.17" waitingTime="65.80" waitingCount="1" stopTime="0.00" timeLoss="76.28" rerouteNo="0" devices="tripinfo_L4-AV-0 emissions_L4-AV-0 ssm_L4-AV-0 toc_L4-AV-0 driverstateL4-AV-0" vType="L4-AV-74@L4-AV-0" speedFactor="0.84" vaporized="">
        <emissions CO_abs="12817.767596" CO2_abs="401163.780860" HC_abs="65.820307" PMx_abs="6.804276" NOx_abs="159.178164" fuel_abs="172.449251" electricity_abs="0"/>
    </tripinfo>
    <tripinfo id="L2-AV-1" depart="36.00" departLane="bottom-approaching_0" departPos="5.10" departSpeed="0.00" departDelay="0.00" arrival="147.90" arrivalLane="top-exit_1" arrivalPos="486.40" arrivalSpeed="16.95" duration="111.90" routeLength="995.17" waitingTime="0.00" waitingCount="0" stopTime="0.00" timeLoss="53.07" rerouteNo="0" devices="tripinfo_L2-AV-1 emissions_L2-AV-1 ssm_L2-AV-1 toc_L2-AV-1 driverstateL2-AV-1" vType="L2-AV-30@L2-AV-1" speedFactor="1.02" vaporized="">
        <emissions CO_abs="2957.362131" CO2_abs="160505.663901" HC_abs="17.052902" PMx_abs="2.850868" NOx_abs="65.139656" fuel_abs="68.994940" electricity_abs="0"/>
    </tripinfo>
    <tripinfo id="L4-CV-17" depart="51.00" departLane="bottom-approaching_0" departPos="5.10" departSpeed="0.00" departDelay="0.00" arrival="149.30" arrivalLane="top-exit_1" arrivalPos="486.40" arrivalSpeed="18.55" duration="98.30" routeLength="995.17" waitingTime="0.00" waitingCount="0" stopTime="0.00" timeLoss="45.46" rerouteNo="0" devices="tripinfo_L4-CV-17 emissions_L4-CV-17 ssm_L4-CV-17 toc_L4-CV-17 driverstateL4-CV-17" vType="L4-CV-7@L4-CV-17" speedFactor="1.13" vaporized="">
        <emissions CO_abs="3387.936607" CO2_abs="230859.820648" HC_abs="20.255812" PMx_abs="3.791592" NOx_abs="89.515998" fuel_abs="99.237263" electricity_abs="0"/>
    </tripinfo>
    <tripinfo id="L4-AV-6" depart="72.00" departLane="top-approaching_0" departPos="5.10" departSpeed="0.00" departDelay="0.00" arrival="150.70" arrivalLane="bottom-exit_0" arrivalPos="489.60" arrivalSpeed="17.75" duration="78.70" routeLength="995.17" waitingTime="0.10" waitingCount="1" stopTime="0.00" timeLoss="22.50" rerouteNo="0" devices="tripinfo_L4-AV-6 emissions_L4-AV-6 ssm_L4-AV-6 toc_L4-AV-6 driverstateL4-AV-6" vType="L4-AV-73@L4-AV-6" speedFactor="1.06" vaporized="">
        <emissions CO_abs="2985.463339" CO2_abs="251227.175675" HC_abs="17.736258" PMx_abs="3.531543" NOx_abs="92.639632" fuel_abs="107.992572" electricity_abs="0"/>
    </tripinfo>
    <tripinfo id="L4-CV-25" depart="75.00" departLane="bottom-approaching_0" departPos="5.10" departSpeed="0.00" departDelay="0.00" arrival="150.80" arrivalLane="right-exit_0" arrivalPos="486.40" arrivalSpeed="15.01" duration="75.80" routeLength="979.93" waitingTime="0.00" waitingCount="0" stopTime="0.00" timeLoss="9.53" rerouteNo="0" devices="tripinfo_L4-CV-25 emissions_L4-CV-25 ssm_L4-CV-25 toc_L4-CV-25 driverstateL4-CV-25" vType="L4-CV-57@L4-CV-25" speedFactor="0.90" vaporized="">
        <emissions CO_abs="1931.017922" CO2_abs="227805.569037" HC_abs="12.119925" PMx_abs="2.562539" NOx_abs="79.911075" fuel_abs="97.924802" electricity_abs="0"/>
    </tripinfo>
    <tripinfo id="L4-AV-1" depart="12.00" departLane="top-approaching_0" departPos="5.10" departSpeed="0.00" departDelay="0.00" arrival="162.60" arrivalLane="left-exit_0" arrivalPos="831.00" arrivalSpeed="20.01" duration="150.60" routeLength="1386.28" waitingTime="57.90" waitingCount="1" stopTime="0.00" timeLoss="79.06" rerouteNo="0" devices="tripinfo_L4-AV-1 emissions_L4-AV-1 ssm_L4-AV-1 toc_L4-AV-1 driverstateL4-AV-1" vType="L4-AV-0@L4-AV-1" speedFactor="1.20" vaporized="">
        <emissions CO_abs="13324.222618" CO2_abs="493541.981311" HC_abs="70.517204" PMx_abs="9.106433" NOx_abs="195.756448" fuel_abs="212.157453" electricity_abs="0"/>
    </tripinfo>
    <tripinfo id="L4-AV-5" depart="60.00" departLane="top-approaching_0" departPos="5.10" departSpeed="0.00" departDelay="0.00" arrival="171.60" arrivalLane="left-exit_0" arrivalPos="831.00" arrivalSpeed="16.90" duration="111.60" routeLength="1386.28" waitingTime="0.00" waitingCount="0" stopTime="0.00" timeLoss="26.93" rerouteNo="0" devices="tripinfo_L4-AV-5 emissions_L4-AV-5 ssm_L4-AV-5 toc_L4-AV-5 driverstateL4-AV-5" vType="L4-AV-24@L4-AV-5" speedFactor="1.01" vaporized="">
        <emissions CO_abs="3059.473702" CO2_abs="292484.842428" HC_abs="18.503822" PMx_abs="4.209524" NOx_abs="108.163400" fuel_abs="125.727071" electricity_abs="0"/>
    </tripinfo>
    <tripinfo id="L4-CV-5" depart="15.00" departLane="bottom-approaching_0" departPos="5.10" departSpeed="0.00" departDelay="0.00" arrival="177.90" arrivalLane="left-exit_0" arrivalPos="831.00" arrivalSpeed="18.72" duration="162.90" routeLength="1396.90" waitingTime="68.20" waitingCount="2" stopTime="0.00" timeLoss="85.92" rerouteNo="0" devices="tripinfo_L4-CV-5 emissions_L4-CV-5 ssm_L4-CV-5 toc_L4-CV-5 driverstateL4-CV-5" vType="L4-CV-2@L4-CV-5" speedFactor="1.12" vaporized="">
        <emissions CO_abs="14551.031841" CO2_abs="496409.586050" HC_abs="75.388671" PMx_abs="9.243428" NOx_abs="198.364645" fuel_abs="213.390760" electricity_abs="0"/>
    </tripinfo>
    <tripinfo id="L2-CV-4" depart="48.00" departLane="bottom-approaching_0" departPos="5.10" departSpeed="0.00" departDelay="0.00" arrival="184.50" arrivalLane="left-exit_0" arrivalPos="831.00" arrivalSpeed="18.64" duration="136.50" routeLength="1396.90" waitingTime="23.10" waitingCount="53" stopTime="0.00" timeLoss="59.28" rerouteNo="0" devices="tripinfo_L2-CV-4 emissions_L2-CV-4 ssm_L2-CV-4 toc_L2-CV-4 driverstateL2-CV-4" vType="L2-CV-51@L2-CV-4" speedFactor="1.12" vaporized="">
        <emissions CO_abs="7121.013467" CO2_abs="371913.051392" HC_abs="38.747189" PMx_abs="6.012893" NOx_abs="141.222280" fuel_abs="159.871867" electricity_abs="0"/>
    </tripinfo>
    <tripinfo id="L4-CV-20" depart="60.00" departLane="bottom-approaching_0" departPos="5.10" departSpeed="0.00" departDelay="0.00" arrival="190.40" arrivalLane="left-exit_0" arrivalPos="831.00" arrivalSpeed="16.76" duration="130.40" routeLength="1396.90" waitingTime="14.00" waitingCount="30" stopTime="0.00" timeLoss="44.41" rerouteNo="0" devices="tripinfo_L4-CV-20 emissions_L4-CV-20 ssm_L4-CV-20 toc_L4-CV-20 driverstateL4-CV-20" vType="L4-CV-38@L4-CV-20" speedFactor="1.01" vaporized="">
        <emissions CO_abs="6162.794241" CO2_abs="359440.994053" HC_abs="33.313695" PMx_abs="5.162816" NOx_abs="132.804782" fuel_abs="154.510757" electricity_abs="0"/>
    </tripinfo>
    <tripinfo id="L4-CV-23" depart="69.80" departLane="right-approaching_0" departPos="5.10" departSpeed="0.00" departDelay="0.80" arrival="192.20" arrivalLane="top-exit_1" arrivalPos="486.40" arrivalSpeed="19.66" duration="122.40" routeLength="979.43" waitingTime="48.90" waitingCount="1" stopTime="0.00" timeLoss="71.82" rerouteNo="0" devices="tripinfo_L4-CV-23 emissions_L4-CV-23 ssm_L4-CV-23 toc_L4-CV-23 driverstateL4-CV-23" vType="L4-CV-42@L4-CV-23" speedFactor="1.18" vaporized="">
        <emissions CO_abs="9953.008698" CO2_abs="377475.807286" HC_abs="52.911049" PMx_abs="7.044193" NOx_abs="150.998977" fuel_abs="162.264030" electricity_abs="0"/>
    </tripinfo>
    <tripinfo id="L4-CV-12" depart="39.40" departLane="bottom-approaching_0" departPos="5.10" departSpeed="0.00" departDelay="3.40" arrival="193.60" arrivalLane="left-exit_0" arrivalPos="831.00" arrivalSpeed="14.83" duration="154.20" routeLength="1396.90" waitingTime="26.80" waitingCount="4" stopTime="0.00" timeLoss="57.24" rerouteNo="0" devices="tripinfo_L4-CV-12 emissions_L4-CV-12 ssm_L4-CV-12 toc_L4-CV-12 driverstateL4-CV-12" vType="L4-CV-95@L4-CV-12" speedFactor="0.89" vaporized="">
        <emissions CO_abs="5818.774341" CO2_abs="361855.971806" HC_abs="32.018638" PMx_abs="4.517527" NOx_abs="130.759309" fuel_abs="155.549505" electricity_abs="0"/>
    </tripinfo>
    <tripinfo id="L4-CV-11" depart="33.00" departLane="left-long-approaching_0" departPos="5.10" departSpeed="0.00" departDelay="0.00" arrival="195.10" arrivalLane="right-exit_0" arrivalPos="486.40" arrivalSpeed="16.25" duration="162.10" routeLength="1395.81" waitingTime="56.80" waitingCount="1" stopTime="0.00" timeLoss="74.20" rerouteNo="0" devices="tripinfo_L4-CV-11 emissions_L4-CV-11 ssm_L4-CV-11 toc_L4-CV-11 driverstateL4-CV-11" vType="L4-CV-30@L4-CV-11" speedFactor="0.98" vaporized="">
        <emissions CO_abs="12212.309057" CO2_abs="460172.860281" HC_abs="62.659104" PMx_abs="7.384679" NOx_abs="176.890595" fuel_abs="197.814157" electricity_abs="0"/>
    </tripinfo>
    <tripinfo id="L4-AV-3" depart="36.40" departLane="right-approaching_0" departPos="5.10" departSpeed="0.00" departDelay="0.40" arrival="196.60" arrivalLane="top-exit_0" arrivalPos="486.40" arrivalSpeed="14.90" duration="160.20" routeLength="979.43" waitingTime="76.20" waitingCount="1" stopTime="0.00" timeLoss="93.42" rerouteNo="0" devices="tripinfo_L4-AV-3 emissions_L4-AV-3 ssm_L4-AV-3 toc_L4-AV-3 driverstateL4-AV-3" vType="L4-AV-15@L4-AV-3" speedFactor="0.89" vaporized="">
        <emissions CO_abs="15501.859669" CO2_abs="441293.131159" HC_abs="78.868762" PMx_abs="8.075403" NOx_abs="179.520301" fuel_abs="189.699990" electricity_abs="0"/>
    </tripinfo>
    <tripinfo id="L0-HDV-2" depart="72.80" departLane="right-approaching_0" departPos="5.10" departSpeed="0.00" departDelay="0.80" arrival="198.60" arrivalLane="top-exit_0" arrivalPos="486.40" arrivalSpeed="15.90" duration="125.80" routeLength="979.43" waitingTime="46.80" waitingCount="1" stopTime="0.00" timeLoss="63.22" rerouteNo="0" devices="tripinfo_L0-HDV-2 emissions_L0-HDV-2 ssm_L0-HDV-2" vType="L0-HDV-88@L0-HDV-2" speedFactor="0.96" vaporized="">
        <emissions CO_abs="9478.833037" CO2_abs="307395.538469" HC_abs="50.162488" PMx_abs="5.942158" NOx_abs="127.584688" fuel_abs="132.139585" electricity_abs="0"/>
    </tripinfo>
    <tripinfo id="L4-CV-14" depart="42.00" departLane="left-long-approaching_0" departPos="5.10" departSpeed="0.00" departDelay="0.00" arrival="199.10" arrivalLane="bottom-exit_0" arrivalPos="489.60" arrivalSpeed="13.76" duration="157.10" routeLength="1383.54" waitingTime="39.40" waitingCount="1" stopTime="0.00" timeLoss="53.55" rerouteNo="0" devices="tripinfo_L4-CV-14 emissions_L4-CV-14 ssm_L4-CV-14 toc_L4-CV-14 driverstateL4-CV-14" vType="L4-CV-Right-1@L4-CV-14" speedFactor="0.83" vaporized="">
        <emissions CO_abs="9178.156002" CO2_abs="410692.293225" HC_abs="49.215573" PMx_abs="5.590225" NOx_abs="153.019708" fuel_abs="176.544117" electricity_abs="0"/>
    </tripinfo>
    <tripinfo id="L4-CV-22" depart="66.00" departLane="right-approaching_0" departPos="5.10" departSpeed="0.00" departDelay="0.00" arrival="200.00" arrivalLane="bottom-exit_1" arrivalPos="489.60" arrivalSpeed="17.00" duration="134.00" routeLength="992.90" waitingTime="51.60" waitingCount="2" stopTime="0.00" timeLoss="74.56" rerouteNo="0" devices="tripinfo_L4-CV-22 emissions_L4-CV-22 ssm_L4-CV-22 toc_L4-CV-22 driverstateL4-CV-22" vType="L4-CV-30@L4-CV-22" speedFactor="1.02" vaporized="">
        <emissions CO_abs="11961.984825" CO2_abs="394717.046666" HC_abs="61.332173" PMx_abs="7.070943" NOx_abs="157.793111" fuel_abs="169.676860" electricity_abs="0"/>
    </tripinfo>
    <tripinfo id="L4-CV-15" depart="45.90" departLane="left-long-approaching_0" departPos="5.10" departSpeed="0.00" departDelay="0.90" arrival="200.40" arrivalLane="bottom-exit_0" arrivalPos="489.60" arrivalSpeed="14.55" duration="154.50" routeLength="1383.54" waitingTime="34.70" waitingCount="25" stopTime="0.00" timeLoss="56.73" rerouteNo="0" devices="tripinfo_L4-CV-15 emissions_L4-CV-15 ssm_L4-CV-15 toc_L4-CV-15 driverstateL4-CV-15" vType="L4-CV-Right-3@L4-CV-15" speedFactor="0.87" vaporized="">
        <emissions CO_abs="6566.149813" CO2_abs="219140.208164" HC_abs="34.696453" PMx_abs="3.960361" NOx_abs="89.662450" fuel_abs="94.201600" electricity_abs="0"/>
    </tripinfo>
    <tripinfo id="L2-CV-8" depart="96.20" departLane="right-approaching_0" departPos="5.10" departSpeed="0.00" departDelay="0.20" arrival="201.10" arrivalLane="top-exit_1" arrivalPos="486.40" arrivalSpeed="17.81" duration="104.90" routeLength="979.43" waitingTime="21.20" waitingCount="16" stopTime="0.00" timeLoss="48.97" rerouteNo="0" devices="tripinfo_L2-CV-8 emissions_L2-CV-8 ssm_L2-CV-8 toc_L2-CV-8 driverstateL2-CV-8" vType="L2-CV-35@L2-CV-8" speedFactor="1.07" vaporized="">
        <emissions CO_abs="6072.718019" CO2_abs="313011.436178" HC_abs="33.379837" PMx_abs="4.954088" NOx_abs="119.640148" fuel_abs="134.552372" electricity_abs="0"/>
    </tripinfo>
    <tripinfo id="L4-CV-29" depart="87.00" departLane="right-approaching_0" departPos="5.10" departSpeed="0.00" departDelay="0.00" arrival="201.20" arrivalLane="bottom-exit_1" arrivalPos="489.60" arrivalSpeed="17.30" duration="114.20" routeLength="992.90" waitingTime="29.70" waitingCount="28" stopTime="0.00" timeLoss="55.97" rerouteNo="0" devices="tripinfo_L4-CV-29 emissions_L4-CV-29 ssm_L4-CV-29 toc_L4-CV-29 driverstateL4-CV-29" vType="L4-CV-28@L4-CV-29" speedFactor="1.04" vaporized="">
        <emissions CO_abs="6878.412911" CO2_abs="292633.678025" HC_abs="36.307836" PMx_abs="5.019193" NOx_abs="115.093411" fuel_abs="125.792987" electricity_abs="0"/>
    </tripinfo>
    <tripinfo id="L4-CV-31" depart="93.00" departLane="right-approaching_0" departPos="5.10" departSpeed="0.00" departDelay="0.00" arrival="202.20" arrivalLane="top-exit_0" arrivalPos="486.40" arrivalSpeed="15.01" duration="109.20" routeLength="979.43" waitingTime="22.50" waitingCount="1" stopTime="0.00" timeLoss="43.05" rerouteNo="0" devices="tripinfo_L4-CV-31 emissions_L4-CV-31 ssm_L4-CV-31 toc_L4-CV-31 driverstateL4-CV-31" vType="L4-CV-4@L4-CV-31" speedFactor="0.90" vaporized="">
        <emissions CO_abs="5194.440773" CO2_abs="283965.065895" HC_abs="28.037248" PMx_abs="3.936680" NOx_abs="105.524807" fuel_abs="122.066769" electricity_abs="0"/>
    </tripinfo>
    <tripinfo id="L4-CV-30" depart="90.10" departLane="right-approaching_0" departPos="5.10" departSpeed="0.00" departDelay="0.10" arrival="202.40" arrivalLane="bottom-exit_1" arrivalPos="489.60" arrivalSpeed="18.14" duration="112.30" routeLength="992.90" waitingTime="27.40" waitingCount="32" stopTime="0.00" timeLoss="56.75" rerouteNo="0" devices="tripinfo_L4-CV-30 emissions_L4-CV-30 ssm_L4-CV-30 toc_L4-CV-30 driverstateL4-CV-30" vType="L4-CV-14@L4-CV-30" speedFactor="1.09" vaporized="">
        <emissions CO_abs="6810.831536" CO2_abs="278376.720017" HC_abs="36.453770" PMx_abs="5.106583" NOx_abs="112.264375" fuel_abs="119.664200" electricity_abs="0"/>
    </tripinfo>
    <tripinfo id="L0-HDV-3" depart="108.00" departLane="bottom-approaching_0" departPos="5.10" departSpeed="0.00" departDelay="0.00" arrival="203.70" arrivalLane="left-exit_0" arrivalPos="831.00" arrivalSpeed="15.53" duration="95.70" routeLength="1396.90" waitingTime="0.00" waitingCount="0" stopTime="0.00" timeLoss="3.64" rerouteNo="0" devices="tripinfo_L0-HDV-3 emissions_L0-HDV-3 ssm_L0-HDV-3" vType="L0-HDV-29@L0-HDV-3" speedFactor="0.94" vaporized="">
        <emissions CO_abs="2496.098112" CO2_abs="249935.910979" HC_abs="17.013941" PMx_abs="4.039419" NOx_abs="96.944871" fuel_abs="107.436426" electricity_abs="0"/>
    </tripinfo>
    <tripinfo id="L4-CV-36" depart="108.00" departLane="right-approaching_0" departPos="5.10" departSpeed="0.00" departDelay="0.00" arrival="204.60" arrivalLane="top-exit_0" arrivalPos="486.40" arrivalSpeed="16.60" duration="96.60" routeLength="979.43" waitingTime="11.10" waitingCount="29" stopTime="0.00" timeLoss="36.59" rerouteNo="0" devices="tripinfo_L4-CV-36 emissions_L4-CV-36 ssm_L4-CV-36 toc_L4-CV-36 driverstateL4-CV-36" vType="L4-CV-88@L4-CV-36" speedFactor="1.00" vaporized="">
        <emissions CO_abs="4878.678180" CO2_abs="287740.127695" HC_abs="26.922018" PMx_abs="4.204603" NOx_abs="107.680965" fuel_abs="123.688981" electricity_abs="0"/>
    </tripinfo>
    <tripinfo id="L4-CV-16" depart="48.70" departLane="left-long-approaching_0" departPos="5.10" departSpeed="0.00" departDelay="0.70" arrival="208.30" arrivalLane="top-exit_0" arrivalPos="486.40" arrivalSpeed="15.82" duration="159.60" routeLength="1393.12" waitingTime="47.70" waitingCount="26" stopTime="0.00" timeLoss="69.07" rerouteNo="1" devices="tripinfo_L4-CV-16 emissions_L4-CV-16 ssm_L4-CV-16 toc_L4-CV-16 driverstateL4-CV-16" vType="L4-CV-Left-28@L4-CV-16" speedFactor="0.95" vaporized="">
        <emissions CO_abs="9254.423304" CO2_abs="417548.623763" HC_abs="48.053362" PMx_abs="6.208735" NOx_abs="156.840566" fuel_abs="179.490463" electricity_abs="0"/>
    </tripinfo>
    <tripinfo id="L2-CV-6" depart="72.00" departLane="left-long-approaching_0" departPos="5.10" departSpeed="0.00" departDelay="0.00" arrival="209.50" arrivalLane="top-exit_0" arrivalPos="486.40" arrivalSpeed="16.81" duration="137.50" routeLength="1393.12" waitingTime="29.60" waitingCount="2" stopTime="0.00" timeLoss="52.09" rerouteNo="1" devices="tripinfo_L2-CV-6 emissions_L2-CV-6 ssm_L2-CV-6 toc_L2-CV-6 driverstateL2-CV-6" vType="L2-CV-Left-48@L2-CV-6" speedFactor="1.01" vaporized="">
        <emissions CO_abs="8317.996351" CO2_abs="383593.455639" HC_abs="43.423368" PMx_abs="6.028290" NOx_abs="145.922657" fuel_abs="164.893622" electricity_abs="0"/>
    </tripinfo>
    <tripinfo id="L4-CV-33" depart="100.30" departLane="right-approaching_0" departPos="5.10" departSpeed="0.00" departDelay="1.30" arrival="209.90" arrivalLane="bottom-exit_0" arrivalPos="489.60" arrivalSpeed="14.25" duration="109.60" routeLength="992.90" waitingTime="13.80" waitingCount="26" stopTime="0.00" timeLoss="38.87" rerouteNo="0" devices="tripinfo_L4-CV-33 emissions_L4-CV-33 ssm_L4-CV-33 toc_L4-CV-33 driverstateL4-CV-33" vType="L4-CV-58@L4-CV-33" speedFactor="0.85" vaporized="">
        <emissions CO_abs="5199.941608" CO2_abs="286475.171722" HC_abs="28.285786" PMx_abs="3.859277" NOx_abs="106.238436" fuel_abs="123.145901" electricity_abs="0"/>
    </tripinfo>
    <tripinfo id="L4-CV-44" depart="132.00" departLane="right-approaching_0" departPos="5.10" departSpeed="0.00" departDelay="0.00" arrival="211.10" arrivalLane="bottom-exit_1" arrivalPos="489.60" arrivalSpeed="15.25" duration="79.10" routeLength="992.90" waitingTime="0.00" waitingCount="0" stopTime="0.00" timeLoss="12.89" rerouteNo="0" devices="tripinfo_L4-CV-44 emissions_L4-CV-44 ssm_L4-CV-44 toc_L4-CV-44 driverstateL4-CV-44" vType="L4-CV-72@L4-CV-44" speedFactor="0.91" vaporized="">