<?xml version="1.0" encoding="UTF-8"?>

<!-- generated on 03/24/21 19:57:56 by Eclipse SUMO GUI Version 1.8.0
<configuration xmlns:xsi="http://www.w3.org/2001/XMLSchema-instance" xsi:noNamespaceSchemaLocation="http://sumo.dlr.de/xsd/sumoConfiguration.xsd">

    <input>
        <net-file value="Roadworks\BaselinePenetration1\../RoadworksIntersection.net.xml"/>
        <route-files value="Roadworks\BaselinePenetration1\Route-Files/L4-CV-Route.rou.xml,Roadworks\BaselinePenetration1\Route-Files/L4-AV-Route.rou.xml,Roadworks\BaselinePenetration1\Route-Files/L2-CV-Route.rou.xml,Roadworks\BaselinePenetration1\Route-Files/L2-AV-Route.rou.xml,Roadworks\BaselinePenetration1\Route-Files/L0-HDV-Route.rou.xml"/>
        <additional-files value="Roadworks\BaselinePenetration1\../Additional-Files/Roadworks-Detectors.add.xml,Roadworks\BaselinePenetration1\../Additional-Files/Roadworks-Rerouters.add.xml,Roadworks\BaselinePenetration1\../Additional-Files/Roadworks-Traffic-lights.add.xml,Roadworks\BaselinePenetration1\../Additional-Files/Roadworks-Traffic-Signs.add.xml,Roadworks\BaselinePenetration1\PreparingVehicleModels/Vehicle-Models/L4-CV.add.xml,Roadworks\BaselinePenetration1\PreparingVehicleModels/Vehicle-Models/L4-CV-Left.add.xml,Roadworks\BaselinePenetration1\PreparingVehicleModels/Vehicle-Models/L4-CV-Right.add.xml,Roadworks\BaselinePenetration1\PreparingVehicleModels/Vehicle-Models/L4-AV.add.xml,Roadworks\BaselinePenetration1\PreparingVehicleModels/Vehicle-Models/L4-AV-Left.add.xml,Roadworks\BaselinePenetration1\PreparingVehicleModels/Vehicle-Models/L4-AV-Right.add.xml,Roadworks\BaselinePenetration1\PreparingVehicleModels/Vehicle-Models/L2-CV.add.xml,Roadworks\BaselinePenetration1\PreparingVehicleModels/Vehicle-Models/L2-CV-Left.add.xml,Roadworks\BaselinePenetration1\PreparingVehicleModels/Vehicle-Models/L2-CV-Right.add.xml,Roadworks\BaselinePenetration1\PreparingVehicleModels/Vehicle-Models/L2-AV.add.xml,Roadworks\BaselinePenetration1\PreparingVehicleModels/Vehicle-Models/L2-AV-Left.add.xml,Roadworks\BaselinePenetration1\PreparingVehicleModels/Vehicle-Models/L2-AV-Right.add.xml,Roadworks\BaselinePenetration1\PreparingVehicleModels/Vehicle-Models/L0-HDV.add.xml,Roadworks\BaselinePenetration1\PreparingVehicleModels/Vehicle-Models/L0-HDV-Left.add.xml,Roadworks\BaselinePenetration1\PreparingVehicleModels/Vehicle-Models/L0-HDV-Straight.add.xml"/>
    </input>

    <output>
        <tripinfo-output value="Roadworks\BaselinePenetration1\Output-Files\TripInfo.xml"/>
    </output>

    <time>
        <begin value="0"/>
        <step-length value="0.1"/>
    </time>

    <processing>
        <ignore-route-errors value="true"/>
        <waiting-time-memory value="300"/>
        <default.action-step-length value="0.1"/>
    </processing>

    <report>
        <no-warnings value="true"/>
    </report>

    <emissions>
        <device.emissions.probability value="1"/>
    </emissions>

    <traci_server>
        <remote-port value="51946"/>
    </traci_server>

    <gui_only>
        <start value="true"/>
        <tracker-interval value="0.1"/>
    </gui_only>

</configuration>
-->

<tripinfos xmlns:xsi="http://www.w3.org/2001/XMLSchema-instance" xsi:noNamespaceSchemaLocation="http://sumo.dlr.de/xsd/tripinfo_file.xsd">
    <tripinfo id="L4-CV-3" depart="9.00" departLane="right-approaching_0" departPos="5.10" departSpeed="0.00" departDelay="0.00" arrival="84.60" arrivalLane="top-exit_0" arrivalPos="486.40" arrivalSpeed="15.38" duration="75.60" routeLength="979.43" waitingTime="0.00" waitingCount="0" stopTime="0.00" timeLoss="10.86" rerouteNo="0" devices="tripinfo_L4-CV-3 emissions_L4-CV-3 ssm_L4-CV-3 toc_L4-CV-3 driverstateL4-CV-3" vType="L4-CV-54@L4-CV-3" speedFactor="0.92" vaporized="">
        <emissions CO_abs="2214.804977" CO2_abs="230586.490589" HC_abs="12.834849" PMx_abs="2.790072" NOx_abs="81.937735" fuel_abs="99.120035" electricity_abs="0"/>
    </tripinfo>
    <tripinfo id="L4-CV-19" depart="57.00" departLane="right-approaching_0" departPos="5.10" departSpeed="0.00" departDelay="0.00" arrival="125.50" arrivalLane="bottom-exit_0" arrivalPos="489.60" arrivalSpeed="16.15" duration="68.50" routeLength="992.90" waitingTime="0.00" waitingCount="0" stopTime="0.00" timeLoss="6.02" rerouteNo="0" devices="tripinfo_L4-CV-19 emissions_L4-CV-19 ssm_L4-CV-19 toc_L4-CV-19 driverstateL4-CV-19" vType="L4-CV-2@L4-CV-19" speedFactor="0.97" vaporized="">
        <emissions CO_abs="1601.655835" CO2_abs="218907.533816" HC_abs="9.708034" PMx_abs="2.569969" NOx_abs="76.203421" fuel_abs="94.099476" electricity_abs="0"/>
    </tripinfo>
    <tripinfo id="L0-HDV-0" depart="3.60" departLane="bottom-approaching_0" departPos="5.10" departSpeed="0.00" departDelay="3.60" arrival="138.30" arrivalLane="right-exit_0" arrivalPos="486.40" arrivalSpeed="19.92" duration="134.70" routeLength="979.93" waitingTime="64.30" waitingCount="1" stopTime="0.00" timeLoss="84.77" rerouteNo="0" devices="tripinfo_L0-HDV-0 emissions_L0-HDV-0 ssm_L0-HDV-0" vType="L0-HDV-30@L0-HDV-0" speedFactor="1.20" vaporized="">
        <emissions CO_abs="14483.550350" CO2_abs="429872.848734" HC_abs="76.061455" PMx_abs="8.965760" NOx_abs="181.926307" fuel_abs="184.788860" electricity_abs="0"/>
    </tripinfo>
    <tripinfo id="L4-CV-6" depart="19.10" departLane="top-approaching_0" departPos="5.10" departSpeed="0.00" departDelay="1.10" arrival="140.70" arrivalLane="bottom-exit_0" arrivalPos="489.60" arrivalSpeed="15.86" duration="121.60" routeLength="995.17" waitingTime="45.00" waitingCount="1" stopTime="0.00" timeLoss="58.73" rerouteNo="0" devices="tripinfo_L4-CV-6 emissions_L4-CV-6 ssm_L4-CV-6 toc_L4-CV-6 driverstateL4-CV-6" vType="L4-CV-41@L4-CV-6" speedFactor="0.95" vaporized="">
        <emissions CO_abs="9674.012619" CO2_abs="354187.539225" HC_abs="49.869750" PMx_abs="5.905757" NOx_abs="138.488623" fuel_abs="152.254200" electricity_abs="0"/>
    </tripinfo>
    <tripinfo id="L4-CV-9" depart="27.00" departLane="top-approaching_0" departPos="5.10" departSpeed="0.00" departDelay="0.00" arrival="142.10" arrivalLane="bottom-exit_1" arrivalPos="489.60" arrivalSpeed="17.34" duration="115.10" routeLength="995.17" waitingTime="34.40" waitingCount="22" stopTime="0.00" timeLoss="57.75" rerouteNo="0" devices="tripinfo_L4-CV-9 emissions_L4-CV-9 ssm_L4-CV-9 toc_L4-CV-9 driverstateL4-CV-9" vType="L4-CV-16@L4-CV-9" speedFactor="1.04" vaporized="">
        <emissions CO_abs="7095.004701" CO2_abs="322296.798907" HC_abs="37.949147" PMx_abs="5.268600" NOx_abs="124.291917" fuel_abs="138.544228" electricity_abs="0"/>
    </tripinfo>
    <tripinfo id="L4-CV-0" depart="0.00" departLane="bottom-approaching_0" departPos="5.10" departSpeed="0.00" departDelay="0.00" arrival="142.40" arrivalLane="top-exit_0" arrivalPos="486.40" arrivalSpeed="16.26" duration="142.40" routeLength="995.17" waitingTime="64.20" waitingCount="1" stopTime="0.00" timeLoss="81.11" rerouteNo="0" devices="tripinfo_L4-CV-0 emissions_L4-CV-0 ssm_L4-CV-0 toc_L4-CV-0 driverstateL4-CV-0" vType="L4-CV-89@L4-CV-0" speedFactor="0.98" vaporized="">
        <emissions CO_abs="13383.955368" CO2_abs="415179.992320" HC_abs="68.018623" PMx_abs="7.459859" NOx_abs="166.458791" fuel_abs="178.473859" electricity_abs="0"/>
    </tripinfo>
    <tripinfo id="L4-CV-10" depart="30.00" departLane="bottom-approaching_0" departPos="5.10" departSpeed="0.00" departDelay="0.00" arrival="143.00" arrivalLane="right-exit_0" arrivalPos="486.40" arrivalSpeed="16.81" duration="113.00" routeLength="979.93" waitingTime="33.20" waitingCount="1" stopTime="0.00" timeLoss="53.86" rerouteNo="0" devices="tripinfo_L4-CV-10 emissions_L4-CV-10 ssm_L4-CV-10 toc_L4-CV-10 driverstateL4-CV-10" vType="L4-CV-27@L4-CV-10" speedFactor="1.01" vaporized="">
        <emissions CO_abs="6462.229064" CO2_abs="306580.179444" HC_abs="34.376514" PMx_abs="4.839919" NOx_abs="117.190338" fuel_abs="131.788129" electricity_abs="0"/>
    </tripinfo>
    <tripinfo id="L2-CV-1" depart="12.00" departLane="bottom-approaching_0" departPos="5.10" departSpeed="0.00" departDelay="0.00" arrival="143.50" arrivalLane="top-exit_1" arrivalPos="486.40" arrivalSpeed="16.59" duration="131.50" routeLength="995.17" waitingTime="49.50" waitingCount="24" stopTime="0.00" timeLoss="71.60" rerouteNo="0" devices="tripinfo_L2-CV-1 emissions_L2-CV-1 ssm_L2-CV-1 toc_L2-CV-1 driverstateL2-CV-1" vType="L2-CV-56@L2-CV-1" speedFactor="1.00" vaporized="">
        <emissions CO_abs="9511.958568" CO2_abs="356068.987205" HC_abs="49.388355" PMx_abs="6.033839" NOx_abs="139.587092" fuel_abs="153.062706" electricity_abs="0"/>
    </tripinfo>
    <tripinfo id="L2-CV-3" depart="36.00" departLane="top-approaching_0" departPos="5.10" departSpeed="0.00" departDelay="0.00" arrival="145.20" arrivalLane="bottom-exit_0" arrivalPos="489.60" arrivalSpeed="16.18" duration="109.20" routeLength="995.17" waitingTime="29.00" waitingCount="26" stopTime="0.00" timeLoss="47.75" rerouteNo="0" devices="tripinfo_L2-CV-3 emissions_L2-CV-3 ssm_L2-CV-3 toc_L2-CV-3 driverstateL2-CV-3" vType="L2-CV-40@L2-CV-3" speedFactor="0.97" vaporized="">
        <emissions CO_abs="5446.301327" CO2_abs="292058.873037" HC_abs="29.142651" PMx_abs="4.348663" NOx_abs="109.691957" fuel_abs="125.545684" electricity_abs="0"/>
    </tripinfo>
    <tripinfo id="L4-AV-2" depart="24.00" departLane="top-approaching_0" departPos="5.10" departSpeed="0.00" departDelay="0.00" arrival="149.10" arrivalLane="right-exit_0" arrivalPos="486.40" arrivalSpeed="20.01" duration="125.10" routeLength="992.21" waitingTime="47.70" waitingCount="2" stopTime="0.00" timeLoss="74.71" rerouteNo="0" devices="tripinfo_L4-AV-2 emissions_L4-AV-2 ssm_L4-AV-2 toc_L4-AV-2 driverstateL4-AV-2" vType="L4-AV-0@L4-AV-2" speedFactor="1.20" vaporized="">
        <emissions CO_abs="12066.202224" CO2_abs="418599.795397" HC_abs="63.597769" PMx_abs="7.962268" NOx_abs="169.386314" fuel_abs="179.942433" electricity_abs="0"/>
    </tripinfo>
    <tripinfo id="L4-CV-8" depart="24.00" departLane="bottom-approaching_0" departPos="5.10" departSpeed="0.00" departDelay="0.00" arrival="151.30" arrivalLane="top-exit_0" arrivalPos="486.40" arrivalSpeed="13.41" duration="127.30" routeLength="995.17" waitingTime="34.80" waitingCount="25" stopTime="0.00" timeLoss="53.21" rerouteNo="0" devices="tripinfo_L4-CV-8 emissions_L4-CV-8 ssm_L4-CV-8 toc_L4-CV-8 driverstateL4-CV-8" vType="L4-CV-69@L4-CV-8" speedFactor="0.80" vaporized="">
        <emissions CO_abs="6513.738688" CO2_abs="306329.632041" HC_abs="35.654159" PMx_abs="4.218779" NOx_abs="114.890448" fuel_abs="131.681464" electricity_abs="0"/>
    </tripinfo>
    <tripinfo id="L4-CV-18" depart="54.00" departLane="top-approaching_0" departPos="5.10" departSpeed="0.00" departDelay="0.00" arrival="157.00" arrivalLane="right-exit_0" arrivalPos="486.40" arrivalSpeed="14.80" duration="103.00" routeLength="992.21" waitingTime="9.30" waitingCount="2" stopTime="0.00" timeLoss="34.92" rerouteNo="0" devices="tripinfo_L4-CV-18 emissions_L4-CV-18 ssm_L4-CV-18 toc_L4-CV-18 driverstateL4-CV-18" vType="L4-CV-58@L4-CV-18" speedFactor="0.89" vaporized="">
        <emissions CO_abs="3913.111343" CO2_abs="264144.878999" HC_abs="21.889913" PMx_abs="3.394741" NOx_abs="96.367623" fuel_abs="113.546387" electricity_abs="0"/>
    </tripinfo>
    <tripinfo id="L4-CV-24" depart="72.20" departLane="top-approaching_0" departPos="5.10" departSpeed="0.00" departDelay="0.20" arrival="161.80" arrivalLane="right-exit_0" arrivalPos="486.40" arrivalSpeed="13.92" duration="89.60" routeLength="992.21" waitingTime="0.10" waitingCount="1" stopTime="0.00" timeLoss="17.17" rerouteNo="0" devices="tripinfo_L4-CV-24 emissions_L4-CV-24 ssm_L4-CV-24 toc_L4-CV-24 driverstateL4-CV-24" vType="L4-CV-97@L4-CV-24" speedFactor="0.83" vaporized="">
        <emissions CO_abs="2858.320953" CO2_abs="247994.669311" HC_abs="17.458503" PMx_abs="2.769051" NOx_abs="88.268338" fuel_abs="106.604011" electricity_abs="0"/>
    </tripinfo>
    <tripinfo id="L4-AV-8" depart="96.00" departLane="top-approaching_0" departPos="5.10" departSpeed="0.00" departDelay="0.00" arrival="165.20" arrivalLane="right-exit_0" arrivalPos="486.40" arrivalSpeed="17.94" duration="69.20" routeLength="992.21" waitingTime="0.00" waitingCount="0" stopTime="0.00" timeLoss="12.98" rerouteNo="0" devices="tripinfo_L4-AV-8 emissions_L4-AV-8 ssm_L4-AV-8 toc_L4-AV-8 driverstateL4-AV-8" vType="L4-AV-65@L4-AV-8" speedFactor="1.08" vaporized="">
        <emissions CO_abs="2256.175999" CO2_abs="245566.097464" HC_abs="14.064474" PMx_abs="3.387519" NOx_abs="89.184256" fuel_abs="105.558678" electricity_abs="0"/>
    </tripinfo>
    <tripinfo id="L4-CV-5" depart="15.00" departLane="top-approaching_0" departPos="5.10" departSpeed="0.00" departDelay="0.00" arrival="171.20" arrivalLane="left-exit_0" arrivalPos="831.00" arrivalSpeed="16.04" duration="156.20" routeLength="1386.28" waitingTime="44.50" waitingCount="15" stopTime="0.00" timeLoss="67.22" rerouteNo="0" devices="tripinfo_L4-CV-5 emissions_L4-CV-5 ssm_L4-CV-5 toc_L4-CV-5 driverstateL4-CV-5" vType="L4-CV-95@L4-CV-5" speedFactor="0.96" vaporized="">
        <emissions CO_abs="8910.747350" CO2_abs="410040.775642" HC_abs="46.559796" PMx_abs="5.999885" NOx_abs="153.458555" fuel_abs="176.263112" electricity_abs="0"/>
    </tripinfo>
    <tripinfo id="L4-CV-11" depart="33.00" departLane="top-approaching_0" departPos="5.10" departSpeed="0.00" departDelay="0.00" arrival="173.10" arrivalLane="left-exit_1" arrivalPos="831.00" arrivalSpeed="16.25" duration="140.10" routeLength="1386.28" waitingTime="30.00" waitingCount="2" stopTime="0.00" timeLoss="52.12" rerouteNo="0" devices="tripinfo_L4-CV-11 emissions_L4-CV-11 ssm_L4-CV-11 toc_L4-CV-11 driverstateL4-CV-11" vType="L4-CV-17@L4-CV-11" speedFactor="0.98" vaporized="">
        <emissions CO_abs="7928.281530" CO2_abs="388064.494784" HC_abs="42.259285" PMx_abs="5.895809" NOx_abs="146.555371" fuel_abs="166.815554" electricity_abs="0"/>
    </tripinfo>
    <tripinfo id="L4-CV-37" depart="111.00" departLane="top-approaching_0" departPos="5.10" departSpeed="0.00" departDelay="0.00" arrival="173.80" arrivalLane="right-exit_1" arrivalPos="486.40" arrivalSpeed="18.35" duration="62.80" routeLength="992.21" waitingTime="0.00" waitingCount="0" stopTime="0.00" timeLoss="7.82" rerouteNo="0" devices="tripinfo_L4-CV-37 emissions_L4-CV-37 ssm_L4-CV-37 toc_L4-CV-37 driverstateL4-CV-37" vType="L4-CV-54@L4-CV-37" speedFactor="1.10" vaporized="">
        <emissions CO_abs="1826.117940" CO2_abs="232484.877499" HC_abs="11.888269" PMx_abs="3.208186" NOx_abs="82.991853" fuel_abs="99.935479" electricity_abs="0"/>
    </tripinfo>
    <tripinfo id="L4-CV-1" depart="3.00" departLane="top-approaching_0" departPos="5.10" departSpeed="0.00" departDelay="0.00" arrival="173.90" arrivalLane="left-exit_0" arrivalPos="831.00" arrivalSpeed="13.99" duration="170.90" routeLength="1386.28" waitingTime="60.10" waitingCount="1" stopTime="0.00" timeLoss="68.67" rerouteNo="0" devices="tripinfo_L4-CV-1 emissions_L4-CV-1 ssm_L4-CV-1 toc_L4-CV-1 driverstateL4-CV-1" vType="L4-CV-74@L4-CV-1" speedFactor="0.84" vaporized="">
        <emissions CO_abs="11940.223467" CO2_abs="453532.839690" HC_abs="62.224894" PMx_abs="6.794704" NOx_abs="172.970647" fuel_abs="194.960484" electricity_abs="0"/>
    </tripinfo>
    <tripinfo id="L4-CV-12" depart="36.00" departLane="bottom-approaching_0" departPos="5.10" departSpeed="0.00" departDelay="0.00" arrival="175.40" arrivalLane="left-exit_0" arrivalPos="831.00" arrivalSpeed="16.00" duration="139.40" routeLength="1396.90" waitingTime="35.40" waitingCount="2" stopTime="0.00" timeLoss="49.36" rerouteNo="0" devices="tripinfo_L4-CV-12 emissions_L4-CV-12 ssm_L4-CV-12 toc_L4-CV-12 driverstateL4-CV-12" vType="L4-CV-20@L4-CV-12" speedFactor="0.96" vaporized="">
        <emissions CO_abs="8460.479097" CO2_abs="373387.460656" HC_abs="44.669083" PMx_abs="5.911360" NOx_abs="143.204988" fuel_abs="160.506722" electricity_abs="0"/>
    </tripinfo>
    <tripinfo id="L4-CV-23" depart="69.00" departLane="top-approaching_0" departPos="5.10" departSpeed="0.00" departDelay="0.00" arrival="178.10" arrivalLane="left-exit_0" arrivalPos="831.00" arrivalSpeed="16.46" duration="109.10" routeLength="1386.28" waitingTime="1.00" waitingCount="1" stopTime="0.00" timeLoss="22.25" rerouteNo="0" devices="tripinfo_L4-CV-23 emissions_L4-CV-23 ssm_L4-CV-23 toc_L4-CV-23 driverstateL4-CV-23" vType="L4-CV-71@L4-CV-23" speedFactor="0.99" vaporized="">
        <emissions CO_abs="4100.900506" CO2_abs="338478.329210" HC_abs="23.690929" PMx_abs="4.707496" NOx_abs="124.172948" fuel_abs="145.498442" electricity_abs="0"/>
    </tripinfo>
    <tripinfo id="L2-CV-5" depart="60.00" departLane="bottom-approaching_0" departPos="5.10" departSpeed="0.00" departDelay="0.00" arrival="181.40" arrivalLane="left-exit_0" arrivalPos="831.00" arrivalSpeed="17.92" duration="121.40" routeLength="1396.90" waitingTime="2.70" waitingCount="3" stopTime="0.00" timeLoss="41.05" rerouteNo="0" devices="tripinfo_L2-CV-5 emissions_L2-CV-5 ssm_L2-CV-5 toc_L2-CV-5 driverstateL2-CV-5" vType="L2-CV-69@L2-CV-5" speedFactor="1.08" vaporized="">
        <emissions CO_abs="4384.662453" CO2_abs="348490.755527" HC_abs="25.201630" PMx_abs="4.799775" NOx_abs="125.950445" fuel_abs="149.802780" electricity_abs="0"/>
    </tripinfo>
    <tripinfo id="L4-CV-21" depart="64.10" departLane="bottom-approaching_0" departPos="5.10" departSpeed="0.00" departDelay="1.10" arrival="183.00" arrivalLane="left-exit_0" arrivalPos="831.00" arrivalSpeed="18.01" duration="118.90" routeLength="1396.90" waitingTime="5.70" waitingCount="11" stopTime="0.00" timeLoss="38.93" rerouteNo="0" devices="tripinfo_L4-CV-21 emissions_L4-CV-21 ssm_L4-CV-21 toc_L4-CV-21 driverstateL4-CV-21" vType="L4-CV-62@L4-CV-21" speedFactor="1.08" vaporized="">
        <emissions CO_abs="5762.936553" CO2_abs="363323.008839" HC_abs="32.227413" PMx_abs="5.536216" NOx_abs="135.925873" fuel_abs="156.178770" electricity_abs="0"/>
    </tripinfo>
    <tripinfo id="L4-CV-16" depart="48.00" departLane="bottom-approaching_0" departPos="5.10" departSpeed="0.00" departDelay="0.00" arrival="186.40" arrivalLane="left-exit_0" arrivalPos="831.00" arrivalSpeed="14.90" duration="138.40" routeLength="1396.90" waitingTime="21.00" waitingCount="3" stopTime="0.00" timeLoss="41.78" rerouteNo="0" devices="tripinfo_L4-CV-16 emissions_L4-CV-16 ssm_L4-CV-16 toc_L4-CV-16 driverstateL4-CV-16" vType="L4-CV-29@L4-CV-16" speedFactor="0.89" vaporized="">
        <emissions CO_abs="6403.917605" CO2_abs="361905.305685" HC_abs="35.035698" PMx_abs="5.147957" NOx_abs="135.304169" fuel_abs="155.570251" electricity_abs="0"/>
    </tripinfo>
    <tripinfo id="L4-CV-40" depart="120.00" departLane="top-approaching_0" departPos="5.10" departSpeed="0.00" departDelay="0.00" arrival="188.50" arrivalLane="right-exit_0" arrivalPos="486.40" arrivalSpeed="17.23" duration="68.50" routeLength="992.21" waitingTime="0.00" waitingCount="0" stopTime="0.00" timeLoss="9.94" rerouteNo="0" devices="tripinfo_L4-CV-40 emissions_L4-CV-40 ssm_L4-CV-40 toc_L4-CV-40 driverstateL4-CV-40" vType="L4-CV-11@L4-CV-40" speedFactor="1.03" vaporized="">
        <emissions CO_abs="2073.297279" CO2_abs="236607.802372" HC_abs="12.876873" PMx_abs="3.128622" NOx_abs="84.748320" fuel_abs="101.707992" electricity_abs="0"/>
    </tripinfo>
    <tripinfo id="L2-AV-2" depart="72.00" departLane="bottom-approaching_0" departPos="5.10" departSpeed="0.00" departDelay="0.00" arrival="189.90" arrivalLane="left-exit_0" arrivalPos="831.00" arrivalSpeed="17.14" duration="117.90" routeLength="1396.90" waitingTime="0.00" waitingCount="0" stopTime="0.00" timeLoss="34.08" rerouteNo="0" devices="tripinfo_L2-AV-2 emissions_L2-AV-2 ssm_L2-AV-2 toc_L2-AV-2 driverstateL2-AV-2" vType="L0-HDV-99@L2-AV-2" speedFactor="1.03" vaporized="">
        <emissions CO_abs="3722.568700" CO2_abs="281461.464713" HC_abs="22.462727" PMx_abs="4.105302" NOx_abs="105.574800" fuel_abs="120.989265" electricity_abs="0"/>
    </tripinfo>
</tripinfos>
