<?xml version="1.0" encoding="UTF-8"?>

<!-- generated on 03/31/21 16:58:50 by Eclipse SUMO sumo Version 1.8.0
<configuration xmlns:xsi="http://www.w3.org/2001/XMLSchema-instance" xsi:noNamespaceSchemaLocation="http://sumo.dlr.de/xsd/sumoConfiguration.xsd">

    <input>
        <net-file value="Roadworks\BaselinePenetration1\../RoadworksIntersection.net.xml"/>
        <route-files value="Roadworks\BaselinePenetration1\Route-Files/L4-CV-Route.rou.xml,Roadworks\BaselinePenetration1\Route-Files/L4-AV-Route.rou.xml,Roadworks\BaselinePenetration1\Route-Files/L2-CV-Route.rou.xml,Roadworks\BaselinePenetration1\Route-Files/L2-AV-Route.rou.xml,Roadworks\BaselinePenetration1\Route-Files/L0-HDV-Route.rou.xml"/>
        <additional-files value="Roadworks\BaselinePenetration1\../Additional-Files/Roadworks-Detectors.add.xml,Roadworks\BaselinePenetration1\../Additional-Files/Roadworks-Rerouters.add.xml,Roadworks\BaselinePenetration1\../Additional-Files/Roadworks-Traffic-lights.add.xml,Roadworks\BaselinePenetration1\../Additional-Files/Roadworks-Traffic-Signs.add.xml,Roadworks\BaselinePenetration1\PreparingVehicleModels/Vehicle-Models/L4-CV.add.xml,Roadworks\BaselinePenetration1\PreparingVehicleModels/Vehicle-Models/L4-CV-Left.add.xml,Roadworks\BaselinePenetration1\PreparingVehicleModels/Vehicle-Models/L4-CV-Right.add.xml,Roadworks\BaselinePenetration1\PreparingVehicleModels/Vehicle-Models/L4-AV.add.xml,Roadworks\BaselinePenetration1\PreparingVehicleModels/Vehicle-Models/L4-AV-Left.add.xml,Roadworks\BaselinePenetration1\PreparingVehicleModels/Vehicle-Models/L4-AV-Right.add.xml,Roadworks\BaselinePenetration1\PreparingVehicleModels/Vehicle-Models/L2-CV.add.xml,Roadworks\BaselinePenetration1\PreparingVehicleModels/Vehicle-Models/L2-CV-Left.add.xml,Roadworks\BaselinePenetration1\PreparingVehicleModels/Vehicle-Models/L2-CV-Right.add.xml,Roadworks\BaselinePenetration1\PreparingVehicleModels/Vehicle-Models/L2-AV.add.xml,Roadworks\BaselinePenetration1\PreparingVehicleModels/Vehicle-Models/L2-AV-Left.add.xml,Roadworks\BaselinePenetration1\PreparingVehicleModels/Vehicle-Models/L2-AV-Right.add.xml,Roadworks\BaselinePenetration1\PreparingVehicleModels/Vehicle-Models/L0-HDV.add.xml,Roadworks\BaselinePenetration1\PreparingVehicleModels/Vehicle-Models/L0-HDV-Left.add.xml,Roadworks\BaselinePenetration1\PreparingVehicleModels/Vehicle-Models/L0-HDV-Straight.add.xml"/>
    </input>

    <output>
        <tripinfo-output value="Roadworks\BaselinePenetration1\Output-Files\TripInfo.xml"/>
    </output>

    <time>
        <begin value="0"/>
        <step-length value="0.1"/>
    </time>

    <processing>
        <ignore-route-errors value="true"/>
        <waiting-time-memory value="300"/>
        <default.action-step-length value="0.1"/>
    </processing>

    <report>
        <no-warnings value="true"/>
    </report>

    <emissions>
        <device.emissions.probability value="1"/>
    </emissions>

    <traci_server>
        <remote-port value="53056"/>
    </traci_server>

    <gui_only>
        <start value="true"/>
        <tracker-interval value="0.1"/>
    </gui_only>

</configuration>
-->

<tripinfos xmlns:xsi="http://www.w3.org/2001/XMLSchema-instance" xsi:noNamespaceSchemaLocation="http://sumo.dlr.de/xsd/tripinfo_file.xsd">
    <tripinfo id="L0-HDV-8" depart="13.80" departLane="right-approaching_0" departPos="5.10" departSpeed="0.00" departDelay="1.24" arrival="78.70" arrivalLane="top-exit_0" arrivalPos="486.40" arrivalSpeed="18.78" duration="64.90" routeLength="979.43" waitingTime="0.00" waitingCount="0" stopTime="0.00" timeLoss="11.79" rerouteNo="0" devices="tripinfo_L0-HDV-8 emissions_L0-HDV-8 ssm_L0-HDV-8" vType="L0-HDV-52" speedFactor="1.13" vaporized="">
        <emissions CO_abs="2531.546506" CO2_abs="203186.009844" HC_abs="15.520089" PMx_abs="3.346517" NOx_abs="78.387041" fuel_abs="87.341011" electricity_abs="0"/>
    </tripinfo>
    <tripinfo id="L0-HDV-1" depart="1.60" departLane="left-long-approaching_0" departPos="5.10" departSpeed="0.00" departDelay="0.03" arrival="79.00" arrivalLane="right-exit_1" arrivalPos="486.40" arrivalSpeed="19.98" duration="77.40" routeLength="995.81" waitingTime="13.40" waitingCount="1" stopTime="0.00" timeLoss="25.92" rerouteNo="0" devices="tripinfo_L0-HDV-1 emissions_L0-HDV-1 ssm_L0-HDV-1" vType="L0-HDV-Straight-82" speedFactor="1.20" vaporized="">
        <emissions CO_abs="5205.743798" CO2_abs="255256.944747" HC_abs="29.577690" PMx_abs="4.941801" NOx_abs="103.990363" fuel_abs="109.724765" electricity_abs="0"/>
    </tripinfo>
    <tripinfo id="L0-HDV-4" depart="6.30" departLane="left-long-approaching_0" departPos="5.10" departSpeed="0.00" departDelay="0.02" arrival="80.80" arrivalLane="bottom-exit_0" arrivalPos="489.60" arrivalSpeed="18.21" duration="74.50" routeLength="983.54" waitingTime="5.90" waitingCount="1" stopTime="0.00" timeLoss="18.29" rerouteNo="0" devices="tripinfo_L0-HDV-4 emissions_L0-HDV-4 ssm_L0-HDV-4" vType="L0-HDV-67" speedFactor="1.09" vaporized="">
        <emissions CO_abs="4141.358426" CO2_abs="244687.053967" HC_abs="24.510269" PMx_abs="4.558217" NOx_abs="99.203811" fuel_abs="105.180676" electricity_abs="0"/>
    </tripinfo>
    <tripinfo id="L0-HDV-12" depart="20.90" departLane="left-long-approaching_0" departPos="5.10" departSpeed="0.00" departDelay="2.06" arrival="84.00" arrivalLane="bottom-exit_0" arrivalPos="489.60" arrivalSpeed="21.91" duration="63.10" routeLength="983.54" waitingTime="0.00" waitingCount="0" stopTime="0.00" timeLoss="16.31" rerouteNo="0" devices="tripinfo_L0-HDV-12 emissions_L0-HDV-12 ssm_L0-HDV-12" vType="L0-HDV-99" speedFactor="1.31" vaporized="">
        <emissions CO_abs="3197.267092" CO2_abs="250691.138144" HC_abs="20.522723" PMx_abs="4.454236" NOx_abs="98.575840" fuel_abs="107.761218" electricity_abs="0"/>
    </tripinfo>
    <tripinfo id="L0-HDV-16" depart="28.20" departLane="left-long-approaching_0" departPos="5.10" departSpeed="0.00" departDelay="3.08" arrival="89.40" arrivalLane="top-exit_1" arrivalPos="486.40" arrivalSpeed="18.79" duration="61.20" routeLength="993.12" waitingTime="0.00" waitingCount="0" stopTime="0.00" timeLoss="6.09" rerouteNo="1" devices="tripinfo_L0-HDV-16 emissions_L0-HDV-16 ssm_L0-HDV-16" vType="L0-HDV-Left-1@L0-HDV-16" speedFactor="1.13" vaporized="">
        <emissions CO_abs="2238.457927" CO2_abs="187252.180358" HC_abs="13.835601" PMx_abs="3.285157" NOx_abs="73.362015" fuel_abs="80.491351" electricity_abs="0"/>
    </tripinfo>
    <tripinfo id="L2-CV-3" depart="21.10" departLane="right-approaching_0" departPos="5.10" departSpeed="0.00" departDelay="2.50" arrival="89.70" arrivalLane="top-exit_0" arrivalPos="486.40" arrivalSpeed="16.46" duration="68.60" routeLength="979.43" waitingTime="0.00" waitingCount="0" stopTime="0.00" timeLoss="8.14" rerouteNo="0" devices="tripinfo_L2-CV-3 emissions_L2-CV-3 ssm_L2-CV-3 toc_L2-CV-3 driverstateL2-CV-3" vType="L2-CV-71@L2-CV-3" speedFactor="0.99" vaporized="">
        <emissions CO_abs="1797.904685" CO2_abs="226510.261800" HC_abs="11.289643" PMx_abs="2.817927" NOx_abs="80.149529" fuel_abs="97.367537" electricity_abs="0"/>
    </tripinfo>
    <tripinfo id="L0-HDV-14" depart="24.20" departLane="right-approaching_0" departPos="5.10" departSpeed="0.00" departDelay="2.22" arrival="90.70" arrivalLane="top-exit_1" arrivalPos="486.40" arrivalSpeed="18.07" duration="66.50" routeLength="979.43" waitingTime="0.00" waitingCount="0" stopTime="0.00" timeLoss="18.47" rerouteNo="0" devices="tripinfo_L0-HDV-14 emissions_L0-HDV-14 ssm_L0-HDV-14" vType="L0-HDV-87" speedFactor="1.24" vaporized="">
        <emissions CO_abs="2671.133309" CO2_abs="212152.545845" HC_abs="17.055624" PMx_abs="3.675124" NOx_abs="83.913467" fuel_abs="91.195130" electricity_abs="0"/>
    </tripinfo>
    <tripinfo id="L0-HDV-2" depart="3.20" departLane="right-approaching_0" departPos="5.10" departSpeed="0.00" departDelay="0.06" arrival="92.20" arrivalLane="bottom-exit_0" arrivalPos="489.60" arrivalSpeed="15.20" duration="89.00" routeLength="992.90" waitingTime="13.60" waitingCount="2" stopTime="0.00" timeLoss="22.67" rerouteNo="0" devices="tripinfo_L0-HDV-2 emissions_L0-HDV-2 ssm_L0-HDV-2" vType="L0-HDV-89" speedFactor="0.91" vaporized="">
        <emissions CO_abs="4280.403601" CO2_abs="199573.661825" HC_abs="23.221924" PMx_abs="3.412187" NOx_abs="79.153529" fuel_abs="85.789393" electricity_abs="0"/>
    </tripinfo>
    <tripinfo id="L0-HDV-7" depart="11.00" departLane="right-approaching_0" departPos="5.10" departSpeed="0.00" departDelay="0.01" arrival="93.20" arrivalLane="bottom-exit_1" arrivalPos="489.60" arrivalSpeed="16.22" duration="82.20" routeLength="992.90" waitingTime="2.40" waitingCount="1" stopTime="0.00" timeLoss="20.43" rerouteNo="0" devices="tripinfo_L0-HDV-7 emissions_L0-HDV-7 ssm_L0-HDV-7" vType="L0-HDV-42" speedFactor="0.98" vaporized="">
        <emissions CO_abs="3862.438594" CO2_abs="248432.718859" HC_abs="23.385647" PMx_abs="4.534832" NOx_abs="100.858393" fuel_abs="106.790567" electricity_abs="0"/>
    </tripinfo>
    <tripinfo id="L0-HDV-22" depart="35.90" departLane="right-approaching_0" departPos="5.10" departSpeed="0.00" departDelay="1.36" arrival="97.60" arrivalLane="left-exit_1" arrivalPos="431.00" arrivalSpeed="19.67" duration="61.70" routeLength="999.16" waitingTime="0.00" waitingCount="0" stopTime="0.00" timeLoss="9.12" rerouteNo="0" devices="tripinfo_L0-HDV-22 emissions_L0-HDV-22 ssm_L0-HDV-22" vType="L0-HDV-52" speedFactor="1.18" vaporized="">
        <emissions CO_abs="2195.362289" CO2_abs="193843.579951" HC_abs="13.919129" PMx_abs="3.186493" NOx_abs="73.839193" fuel_abs="83.325032" electricity_abs="0"/>
    </tripinfo>
    <tripinfo id="L0-HDV-10" depart="17.40" departLane="right-approaching_0" departPos="5.10" departSpeed="0.00" departDelay="1.70" arrival="101.50" arrivalLane="bottom-exit_1" arrivalPos="489.60" arrivalSpeed="18.95" duration="84.10" routeLength="992.90" waitingTime="5.20" waitingCount="2" stopTime="0.00" timeLoss="30.86" rerouteNo="0" devices="tripinfo_L0-HDV-10 emissions_L0-HDV-10 ssm_L0-HDV-10" vType="L0-HDV-26" speedFactor="1.14" vaporized="">
        <emissions CO_abs="4735.220284" CO2_abs="256589.311796" HC_abs="27.403546" PMx_abs="4.573025" NOx_abs="102.551671" fuel_abs="110.297616" electricity_abs="0"/>
    </tripinfo>
    <tripinfo id="L4-AV-1" depart="24.90" departLane="left-long-approaching_0" departPos="5.10" departSpeed="0.00" departDelay="5.90" arrival="104.80" arrivalLane="bottom-exit_0" arrivalPos="489.60" arrivalSpeed="13.99" duration="79.90" routeLength="983.54" waitingTime="0.00" waitingCount="0" stopTime="0.00" timeLoss="6.56" rerouteNo="0" devices="tripinfo_L4-AV-1 emissions_L4-AV-1 ssm_L4-AV-1 toc_L4-AV-1 driverstateL4-AV-1" vType="L4-AV-Right-74@L4-AV-1" speedFactor="0.84" vaporized="">
        <emissions CO_abs="1844.808232" CO2_abs="222866.765337" HC_abs="11.784763" PMx_abs="2.293745" NOx_abs="77.372475" fuel_abs="95.802063" electricity_abs="0"/>
    </tripinfo>
    <tripinfo id="L0-HDV-24" depart="39.60" departLane="right-approaching_0" departPos="5.10" departSpeed="0.00" departDelay="1.92" arrival="107.80" arrivalLane="top-exit_1" arrivalPos="486.40" arrivalSpeed="17.86" duration="68.20" routeLength="979.43" waitingTime="0.00" waitingCount="0" stopTime="0.00" timeLoss="12.43" rerouteNo="0" devices="tripinfo_L0-HDV-24 emissions_L0-HDV-24 ssm_L0-HDV-24" vType="L0-HDV-8" speedFactor="1.07" vaporized="">
        <emissions CO_abs="2592.661325" CO2_abs="203009.387170" HC_abs="15.970398" PMx_abs="3.336037" NOx_abs="78.939806" fuel_abs="87.265120" electricity_abs="0"/>
    </tripinfo>
    <tripinfo id="L0-HDV-15" depart="27.60" departLane="right-approaching_0" departPos="5.10" departSpeed="0.00" departDelay="4.05" arrival="112.90" arrivalLane="top-exit_0" arrivalPos="486.40" arrivalSpeed="12.39" duration="85.30" routeLength="979.43" waitingTime="0.00" waitingCount="0" stopTime="0.00" timeLoss="5.64" rerouteNo="0" devices="tripinfo_L0-HDV-15 emissions_L0-HDV-15 ssm_L0-HDV-15" vType="L0-HDV-84" speedFactor="0.75" vaporized="">
        <emissions CO_abs="2300.778284" CO2_abs="181533.184724" HC_abs="14.668851" PMx_abs="2.685185" NOx_abs="70.255466" fuel_abs="78.033790" electricity_abs="0"/>
    </tripinfo>
    <tripinfo id="L0-HDV-27" depart="46.50" departLane="right-approaching_0" departPos="5.10" departSpeed="0.00" departDelay="4.11" arrival="114.10" arrivalLane="bottom-exit_0" arrivalPos="489.60" arrivalSpeed="16.48" duration="67.60" routeLength="992.90" waitingTime="0.00" waitingCount="0" stopTime="0.00" timeLoss="6.37" rerouteNo="0" devices="tripinfo_L0-HDV-27 emissions_L0-HDV-27 ssm_L0-HDV-27" vType="L0-HDV-6" speedFactor="0.99" vaporized="">
        <emissions CO_abs="1766.818589" CO2_abs="163627.907783" HC_abs="11.010301" PMx_abs="2.475531" NOx_abs="61.827527" fuel_abs="70.336718" electricity_abs="0"/>
    </tripinfo>
    <tripinfo id="L0-HDV-17" depart="29.70" departLane="left-long-approaching_0" departPos="5.10" departSpeed="0.00" departDelay="3.01" arrival="115.00" arrivalLane="top-exit_1" arrivalPos="486.40" arrivalSpeed="17.98" duration="85.30" routeLength="993.12" waitingTime="5.30" waitingCount="1" stopTime="0.00" timeLoss="27.85" rerouteNo="1" devices="tripinfo_L0-HDV-17 emissions_L0-HDV-17 ssm_L0-HDV-17" vType="L0-HDV-Left-81@L0-HDV-17" speedFactor="1.08" vaporized="">
        <emissions CO_abs="4603.689851" CO2_abs="251266.028292" HC_abs="26.682193" PMx_abs="4.438487" NOx_abs="101.110447" fuel_abs="108.009284" electricity_abs="0"/>
    </tripinfo>
    <tripinfo id="L2-AV-3" depart="18.60" departLane="left-long-approaching_0" departPos="5.10" departSpeed="0.00" departDelay="0.00" arrival="115.30" arrivalLane="top-exit_0" arrivalPos="486.40" arrivalSpeed="15.50" duration="96.70" routeLength="993.12" waitingTime="10.70" waitingCount="2" stopTime="0.00" timeLoss="29.91" rerouteNo="1" devices="tripinfo_L2-AV-3 emissions_L2-AV-3 ssm_L2-AV-3 toc_L2-AV-3 driverstateL2-AV-3" vType="L2-AV-Left-46@L2-AV-3" speedFactor="0.93" vaporized="">
        <emissions CO_abs="5331.317932" CO2_abs="269195.553187" HC_abs="29.189970" PMx_abs="4.327251" NOx_abs="105.074900" fuel_abs="115.717307" electricity_abs="0"/>
    </tripinfo>
    <tripinfo id="L2-AV-4" depart="28.10" departLane="left-long-approaching_0" departPos="5.10" departSpeed="0.00" departDelay="3.30" arrival="116.50" arrivalLane="top-exit_1" arrivalPos="486.40" arrivalSpeed="18.01" duration="88.40" routeLength="993.12" waitingTime="3.40" waitingCount="1" stopTime="0.00" timeLoss="30.95" rerouteNo="1" devices="tripinfo_L2-AV-4 emissions_L2-AV-4 ssm_L2-AV-4 toc_L2-AV-4 driverstateL2-AV-4" vType="L2-AV-Left-22@L2-AV-4" speedFactor="1.08" vaporized="">
        <emissions CO_abs="4918.035974" CO2_abs="292736.533977" HC_abs="28.425474" PMx_abs="5.004747" NOx_abs="116.107981" fuel_abs="125.835626" electricity_abs="0"/>
    </tripinfo>
    <tripinfo id="L0-HDV-30" depart="49.50" departLane="right-approaching_0" departPos="5.10" departSpeed="0.00" departDelay="2.40" arrival="120.20" arrivalLane="bottom-exit_0" arrivalPos="489.60" arrivalSpeed="15.19" duration="70.70" routeLength="992.90" waitingTime="0.00" waitingCount="0" stopTime="0.00" timeLoss="4.27" rerouteNo="0" devices="tripinfo_L0-HDV-30 emissions_L0-HDV-30 ssm_L0-HDV-30" vType="L0-HDV-19" speedFactor="0.91" vaporized="">
        <emissions CO_abs="1417.134568" CO2_abs="143073.810860" HC_abs="8.673423" PMx_abs="1.963273" NOx_abs="52.853729" fuel_abs="61.501505" electricity_abs="0"/>
    </tripinfo>
    <tripinfo id="L0-HDV-38" depart="59.70" departLane="right-approaching_0" departPos="5.10" departSpeed="0.00" departDelay="0.04" arrival="123.10" arrivalLane="bottom-exit_1" arrivalPos="489.60" arrivalSpeed="19.86" duration="63.40" routeLength="992.90" waitingTime="0.00" waitingCount="0" stopTime="0.00" timeLoss="12.78" rerouteNo="0" devices="tripinfo_L0-HDV-38 emissions_L0-HDV-38 ssm_L0-HDV-38" vType="L0-HDV-23" speedFactor="1.20" vaporized="">
        <emissions CO_abs="3111.697272" CO2_abs="242034.328581" HC_abs="19.905815" PMx_abs="4.345989" NOx_abs="96.068092" fuel_abs="104.039917" electricity_abs="0"/>
    </tripinfo>
    <tripinfo id="L0-HDV-18" depart="28.30" departLane="top-approaching_0" departPos="5.10" departSpeed="0.00" departDelay="0.04" arrival="140.10" arrivalLane="bottom-exit_1" arrivalPos="489.60" arrivalSpeed="21.68" duration="111.80" routeLength="995.17" waitingTime="49.00" waitingCount="1" stopTime="0.00" timeLoss="65.85" rerouteNo="0" devices="tripinfo_L0-HDV-18 emissions_L0-HDV-18 ssm_L0-HDV-18" vType="L0-HDV-67" speedFactor="1.30" vaporized="">
        <emissions CO_abs="12046.300633" CO2_abs="400195.827621" HC_abs="64.422919" PMx_abs="8.591724" NOx_abs="169.949917" fuel_abs="172.030149" electricity_abs="0"/>
    </tripinfo>
    <tripinfo id="L0-HDV-0" depart="3.90" departLane="bottom-approaching_0" departPos="5.10" departSpeed="0.00" departDelay="3.90" arrival="144.30" arrivalLane="right-exit_0" arrivalPos="486.40" arrivalSpeed="19.97" duration="140.40" routeLength="979.93" waitingTime="70.00" waitingCount="1" stopTime="0.00" timeLoss="90.60" rerouteNo="0" devices="tripinfo_L0-HDV-0 emissions_L0-HDV-0 ssm_L0-HDV-0" vType="L0-HDV-30" speedFactor="1.20" vaporized="">
        <emissions CO_abs="15430.210060" CO2_abs="444305.812878" HC_abs="80.725265" PMx_abs="9.336538" NOx_abs="188.636868" fuel_abs="190.993413" electricity_abs="0"/>
    </tripinfo>
    <tripinfo id="L2-CV-0" depart="0.00" departLane="bottom-approaching_0" departPos="5.10" departSpeed="0.00" departDelay="0.00" arrival="145.50" arrivalLane="top-exit_1" arrivalPos="486.40" arrivalSpeed="20.01" duration="145.50" routeLength="995.17" waitingTime="72.80" waitingCount="1" stopTime="0.00" timeLoss="95.67" rerouteNo="0" devices="tripinfo_L2-CV-0 emissions_L2-CV-0 ssm_L2-CV-0 toc_L2-CV-0 driverstateL2-CV-0" vType="L2-CV-0@L2-CV-0" speedFactor="1.20" vaporized="">
        <emissions CO_abs="15641.880164" CO2_abs="474930.895482" HC_abs="81.168108" PMx_abs="9.384019" NOx_abs="195.050352" fuel_abs="204.158436" electricity_abs="0"/>
    </tripinfo>
    <tripinfo id="L2-CV-1" depart="6.20" departLane="top-approaching_0" departPos="5.10" departSpeed="0.00" departDelay="0.00" arrival="147.30" arrivalLane="left-exit_0" arrivalPos="431.00" arrivalSpeed="16.59" duration="141.10" routeLength="986.28" waitingTime="65.60" waitingCount="1" stopTime="0.00" timeLoss="79.05" rerouteNo="0" devices="tripinfo_L2-CV-1 emissions_L2-CV-1 ssm_L2-CV-1 toc_L2-CV-1 driverstateL2-CV-1" vType="L2-CV-56@L2-CV-1" speedFactor="1.00" vaporized="">
        <emissions CO_abs="13652.104804" CO2_abs="407508.110832" HC_abs="69.978041" PMx_abs="7.744288" NOx_abs="166.819496" fuel_abs="175.175812" electricity_abs="0"/>
    </tripinfo>
    <tripinfo id="L2-AV-2" depart="12.40" departLane="bottom-approaching_0" departPos="5.10" departSpeed="0.00" departDelay="0.00" arrival="148.90" arrivalLane="right-exit_0" arrivalPos="486.40" arrivalSpeed="16.85" duration="136.50" routeLength="979.93" waitingTime="0.00" waitingCount="0" stopTime="0.00" timeLoss="77.45" rerouteNo="0" devices="tripinfo_L2-AV-2 emissions_L2-AV-2 ssm_L2-AV-2 toc_L2-AV-2 driverstateL2-AV-2" vType="L2-AV-32@L2-AV-2" speedFactor="1.01" vaporized="">
        <emissions CO_abs="2886.795085" CO2_abs="215652.034900" HC_abs="16.346159" PMx_abs="3.182148" NOx_abs="80.793850" fuel_abs="92.700174" electricity_abs="0"/>
    </tripinfo>
    <tripinfo id="L0-HDV-3" depart="7.50" departLane="bottom-approaching_0" departPos="5.10" departSpeed="0.00" departDelay="2.79" arrival="149.00" arrivalLane="top-exit_0" arrivalPos="486.40" arrivalSpeed="17.48" duration="141.50" routeLength="995.17" waitingTime="70.10" waitingCount="1" stopTime="0.00" timeLoss="84.52" rerouteNo="0" devices="tripinfo_L0-HDV-3 emissions_L0-HDV-3 ssm_L0-HDV-3" vType="L0-HDV-89" speedFactor="1.05" vaporized="">
        <emissions CO_abs="14260.508648" CO2_abs="381856.974142" HC_abs="72.861890" PMx_abs="7.838755" NOx_abs="160.853023" fuel_abs="164.149533" electricity_abs="0"/>
    </tripinfo>
    <tripinfo id="L0-HDV-6" depart="13.60" departLane="top-approaching_0" departPos="5.10" departSpeed="0.00" departDelay="4.18" arrival="150.50" arrivalLane="left-exit_0" arrivalPos="431.00" arrivalSpeed="15.31" duration="136.90" routeLength="986.28" waitingTime="60.30" waitingCount="1" stopTime="0.00" timeLoss="69.66" rerouteNo="0" devices="tripinfo_L0-HDV-6 emissions_L0-HDV-6 ssm_L0-HDV-6" vType="L0-HDV-11" speedFactor="0.92" vaporized="">
        <emissions CO_abs="12261.419558" CO2_abs="332585.792222" HC_abs="63.147397" PMx_abs="6.667873" NOx_abs="139.803136" fuel_abs="142.969359" electricity_abs="0"/>
    </tripinfo>
    <tripinfo id="L2-CV-10" depart="62.00" departLane="bottom-approaching_0" departPos="5.10" departSpeed="0.00" departDelay="0.00" arrival="151.40" arrivalLane="right-exit_1" arrivalPos="486.40" arrivalSpeed="19.80" duration="89.40" routeLength="979.93" waitingTime="0.00" waitingCount="0" stopTime="0.00" timeLoss="39.11" rerouteNo="0" devices="tripinfo_L2-CV-10 emissions_L2-CV-10 ssm_L2-CV-10 toc_L2-CV-10 driverstateL2-CV-10" vType="L2-CV-34@L2-CV-10" speedFactor="1.19" vaporized="">
        <emissions CO_abs="3533.889801" CO2_abs="272780.806593" HC_abs="21.393273" PMx_abs="4.454347" NOx_abs="103.631761" fuel_abs="117.257153" electricity_abs="0"/>
    </tripinfo>
    <tripinfo id="L4-CV-1" depart="19.00" departLane="bottom-approaching_0" departPos="5.10" departSpeed="0.00" departDelay="0.00" arrival="152.20" arrivalLane="top-exit_0" arrivalPos="486.40" arrivalSpeed="16.26" duration="133.20" routeLength="995.17" waitingTime="51.80" waitingCount="1" stopTime="0.00" timeLoss="72.12" rerouteNo="0" devices="tripinfo_L4-CV-1 emissions_L4-CV-1 ssm_L4-CV-1 toc_L4-CV-1 driverstateL4-CV-1" vType="L4-CV-89@L4-CV-1" speedFactor="0.98" vaporized="">
        <emissions CO_abs="9812.603441" CO2_abs="363778.506278" HC_abs="50.724864" PMx_abs="6.091836" NOx_abs="142.194544" fuel_abs="156.376945" electricity_abs="0"/>
    </tripinfo>
    <tripinfo id="L2-CV-9" depart="55.80" departLane="top-approaching_0" departPos="5.10" departSpeed="0.00" departDelay="0.00" arrival="152.50" arrivalLane="bottom-exit_1" arrivalPos="489.60" arrivalSpeed="17.02" duration="96.70" routeLength="995.17" waitingTime="13.00" waitingCount="24" stopTime="0.00" timeLoss="38.17" rerouteNo="0" devices="tripinfo_L2-CV-9 emissions_L2-CV-9 ssm_L2-CV-9 toc_L2-CV-9 driverstateL2-CV-9" vType="L2-CV-39@L2-CV-9" speedFactor="1.02" vaporized="">
        <emissions CO_abs="4760.150350" CO2_abs="288228.284409" HC_abs="26.621842" PMx_abs="4.260113" NOx_abs="107.954836" fuel_abs="123.898702" electricity_abs="0"/>
    </tripinfo>
    <tripinfo id="L2-CV-6" depart="37.80" departLane="top-approaching_0" departPos="5.10" departSpeed="0.00" departDelay="0.60" arrival="153.30" arrivalLane="bottom-exit_0" arrivalPos="489.60" arrivalSpeed="15.10" duration="115.50" routeLength="995.17" waitingTime="25.60" waitingCount="2" stopTime="0.00" timeLoss="49.64" rerouteNo="0" devices="tripinfo_L2-CV-6 emissions_L2-CV-6 ssm_L2-CV-6 toc_L2-CV-6 driverstateL2-CV-6" vType="L2-CV-69@L2-CV-6" speedFactor="0.91" vaporized="">
        <emissions CO_abs="5670.308603" CO2_abs="292916.507767" HC_abs="30.751434" PMx_abs="4.128601" NOx_abs="109.634028" fuel_abs="125.914889" electricity_abs="0"/>
    </tripinfo>
    <tripinfo id="L0-HDV-13" depart="20.50" departLane="top-approaching_0" departPos="5.10" departSpeed="0.00" departDelay="0.09" arrival="153.40" arrivalLane="left-exit_1" arrivalPos="431.00" arrivalSpeed="19.09" duration="132.90" routeLength="986.28" waitingTime="51.60" waitingCount="1" stopTime="0.00" timeLoss="78.95" rerouteNo="0" devices="tripinfo_L0-HDV-13 emissions_L0-HDV-13 ssm_L0-HDV-13" vType="L0-HDV-61" speedFactor="1.15" vaporized="">
        <emissions CO_abs="12187.182315" CO2_abs="343723.106798" HC_abs="63.081537" PMx_abs="7.081136" NOx_abs="145.825572" fuel_abs="147.756259" electricity_abs="0"/>
    </tripinfo>
    <tripinfo id="L0-HDV-34" depart="56.30" departLane="bottom-approaching_0" departPos="5.10" departSpeed="0.00" departDelay="2.92" arrival="155.30" arrivalLane="top-exit_0" arrivalPos="486.40" arrivalSpeed="16.94" duration="99.00" routeLength="995.17" waitingTime="15.00" waitingCount="1" stopTime="0.00" timeLoss="40.16" rerouteNo="0" devices="tripinfo_L0-HDV-34 emissions_L0-HDV-34 ssm_L0-HDV-34" vType="L0-HDV-8" speedFactor="1.02" vaporized="">
        <emissions CO_abs="4103.060749" CO2_abs="220341.118647" HC_abs="23.084766" PMx_abs="3.598957" NOx_abs="86.236015" fuel_abs="94.716347" electricity_abs="0"/>
    </tripinfo>
    <tripinfo id="L2-AV-8" depart="52.70" departLane="bottom-approaching_0" departPos="5.10" departSpeed="0.00" departDelay="3.10" arrival="155.40" arrivalLane="right-exit_0" arrivalPos="486.40" arrivalSpeed="15.30" duration="102.70" routeLength="979.93" waitingTime="0.00" waitingCount="0" stopTime="0.00" timeLoss="37.70" rerouteNo="0" devices="tripinfo_L2-AV-8 emissions_L2-AV-8 ssm_L2-AV-8 toc_L2-AV-8 driverstateL2-AV-8" vType="L2-AV-45@L2-AV-8" speedFactor="0.92" vaporized="">
        <emissions CO_abs="3071.303449" CO2_abs="240392.897841" HC_abs="17.490694" PMx_abs="3.093265" NOx_abs="87.655623" fuel_abs="103.335806" electricity_abs="0"/>
    </tripinfo>
    <tripinfo id="L0-HDV-46" depart="72.30" departLane="bottom-approaching_0" departPos="5.10" departSpeed="0.00" departDelay="0.08" arrival="155.90" arrivalLane="top-exit_1" arrivalPos="486.40" arrivalSpeed="20.08" duration="83.60" routeLength="995.17" waitingTime="5.40" waitingCount="1" stopTime="0.00" timeLoss="34.14" rerouteNo="0" devices="tripinfo_L0-HDV-46 emissions_L0-HDV-46 ssm_L0-HDV-46" vType="L0-HDV-13" speedFactor="1.21" vaporized="">
        <emissions CO_abs="5012.200558" CO2_abs="285255.545175" HC_abs="29.480923" PMx_abs="5.102550" NOx_abs="114.364077" fuel_abs="122.619859" electricity_abs="0"/>
    </tripinfo>
    <tripinfo id="L0-HDV-37" depart="65.50" departLane="top-approaching_0" departPos="5.10" departSpeed="0.00" departDelay="7.41" arrival="157.00" arrivalLane="bottom-exit_0" arrivalPos="489.60" arrivalSpeed="14.77" duration="91.50" routeLength="995.17" waitingTime="10.30" waitingCount="1" stopTime="0.00" timeLoss="24.06" rerouteNo="0" devices="tripinfo_L0-HDV-37 emissions_L0-HDV-37 ssm_L0-HDV-37" vType="L0-HDV-58" speedFactor="0.89" vaporized="">
        <emissions CO_abs="3193.376662" CO2_abs="194066.453065" HC_abs="18.676911" PMx_abs="3.001757" NOx_abs="75.052594" fuel_abs="83.421789" electricity_abs="0"/>
    </tripinfo>
    <tripinfo id="L4-CV-3" depart="61.80" departLane="top-approaching_0" departPos="5.10" departSpeed="0.00" departDelay="4.80" arrival="157.60" arrivalLane="bottom-exit_1" arrivalPos="489.60" arrivalSpeed="15.38" duration="95.80" routeLength="995.17" waitingTime="10.20" waitingCount="1" stopTime="0.00" timeLoss="31.01" rerouteNo="0" devices="tripinfo_L4-CV-3 emissions_L4-CV-3 ssm_L4-CV-3 toc_L4-CV-3 driverstateL4-CV-3" vType="L4-CV-54@L4-CV-3" speedFactor="0.92" vaporized="">
        <emissions CO_abs="4227.244750" CO2_abs="255874.574601" HC_abs="24.155721" PMx_abs="3.772325" NOx_abs="97.429331" fuel_abs="109.990985" electricity_abs="0"/>
    </tripinfo>
    <tripinfo id="L4-AV-4" depart="78.70" departLane="top-approaching_0" departPos="5.10" departSpeed="0.00" departDelay="2.70" arrival="159.40" arrivalLane="bottom-exit_0" arrivalPos="489.60" arrivalSpeed="16.00" duration="80.70" routeLength="995.17" waitingTime="0.00" waitingCount="0" stopTime="0.00" timeLoss="18.37" rerouteNo="0" devices="tripinfo_L4-AV-4 emissions_L4-AV-4 ssm_L4-AV-4 toc_L4-AV-4 driverstateL4-AV-4" vType="L4-AV-20@L4-AV-4" speedFactor="0.96" vaporized="">
        <emissions CO_abs="2686.087395" CO2_abs="236219.301290" HC_abs="15.659221" PMx_abs="3.037089" NOx_abs="85.561867" fuel_abs="101.541506" electricity_abs="0"/>
    </tripinfo>
    <tripinfo id="L2-CV-8" depart="49.60" departLane="bottom-approaching_0" departPos="5.10" departSpeed="0.00" departDelay="0.00" arrival="160.90" arrivalLane="top-exit_0" arrivalPos="486.40" arrivalSpeed="12.85" duration="111.30" routeLength="995.17" waitingTime="15.40" waitingCount="27" stopTime="0.00" timeLoss="33.79" rerouteNo="0" devices="tripinfo_L2-CV-8 emissions_L2-CV-8 ssm_L2-CV-8 toc_L2-CV-8 driverstateL2-CV-8" vType="L2-CV-71@L2-CV-8" speedFactor="0.77" vaporized="">
        <emissions CO_abs="4245.921760" CO2_abs="271185.963286" HC_abs="25.203473" PMx_abs="3.242254" NOx_abs="98.597651" fuel_abs="116.573868" electricity_abs="0"/>
    </tripinfo>
    <tripinfo id="L2-AV-12" depart="79.30" departLane="bottom-approaching_0" departPos="5.10" departSpeed="0.00" departDelay="4.90" arrival="161.10" arrivalLane="top-exit_1" arrivalPos="486.40" arrivalSpeed="15.71" duration="81.80" routeLength="995.17" waitingTime="0.00" waitingCount="0" stopTime="0.00" timeLoss="18.36" rerouteNo="0" devices="tripinfo_L2-AV-12 emissions_L2-AV-12 ssm_L2-AV-12 toc_L2-AV-12 driverstateL2-AV-12" vType="L2-AV-90@L2-AV-12" speedFactor="0.94" vaporized="">
        <emissions CO_abs="2526.749191" CO2_abs="233878.788354" HC_abs="14.648095" PMx_abs="2.931106" NOx_abs="84.086694" fuel_abs="100.535381" electricity_abs="0"/>
    </tripinfo>
    <tripinfo id="L0-HDV-11" depart="17.30" departLane="top-approaching_0" departPos="5.10" departSpeed="0.00" departDelay="0.03" arrival="162.00" arrivalLane="right-exit_1" arrivalPos="486.40" arrivalSpeed="18.76" duration="144.70" routeLength="992.21" waitingTime="75.60" waitingCount="2" stopTime="0.00" timeLoss="91.26" rerouteNo="0" devices="tripinfo_L0-HDV-11 emissions_L0-HDV-11 ssm_L0-HDV-11" vType="L0-HDV-22" speedFactor="1.13" vaporized="">
        <emissions CO_abs="16762.448252" CO2_abs="484228.288041" HC_abs="87.788349" PMx_abs="10.531425" NOx_abs="208.640290" fuel_abs="208.154189" electricity_abs="0"/>
    </tripinfo>