<?xml version="1.0" encoding="UTF-8"?>

<!-- generated on 03/25/21 15:08:44 by Eclipse SUMO sumo Version 1.8.0
<configuration xmlns:xsi="http://www.w3.org/2001/XMLSchema-instance" xsi:noNamespaceSchemaLocation="http://sumo.dlr.de/xsd/sumoConfiguration.xsd">

    <input>
        <net-file value="Roadworks\BaselinePenetration1\../RoadworksIntersection.net.xml"/>
        <route-files value="Roadworks\BaselinePenetration1\Route-Files/L4-CV-Route.rou.xml,Roadworks\BaselinePenetration1\Route-Files/L4-AV-Route.rou.xml,Roadworks\BaselinePenetration1\Route-Files/L2-CV-Route.rou.xml,Roadworks\BaselinePenetration1\Route-Files/L2-AV-Route.rou.xml,Roadworks\BaselinePenetration1\Route-Files/L0-HDV-Route.rou.xml"/>
        <additional-files value="Roadworks\BaselinePenetration1\../Additional-Files/Roadworks-Detectors.add.xml,Roadworks\BaselinePenetration1\../Additional-Files/Roadworks-Rerouters.add.xml,Roadworks\BaselinePenetration1\../Additional-Files/Roadworks-Traffic-lights.add.xml,Roadworks\BaselinePenetration1\../Additional-Files/Roadworks-Traffic-Signs.add.xml,Roadworks\BaselinePenetration1\PreparingVehicleModels/Vehicle-Models/L4-CV.add.xml,Roadworks\BaselinePenetration1\PreparingVehicleModels/Vehicle-Models/L4-CV-Left.add.xml,Roadworks\BaselinePenetration1\PreparingVehicleModels/Vehicle-Models/L4-CV-Right.add.xml,Roadworks\BaselinePenetration1\PreparingVehicleModels/Vehicle-Models/L4-AV.add.xml,Roadworks\BaselinePenetration1\PreparingVehicleModels/Vehicle-Models/L4-AV-Left.add.xml,Roadworks\BaselinePenetration1\PreparingVehicleModels/Vehicle-Models/L4-AV-Right.add.xml,Roadworks\BaselinePenetration1\PreparingVehicleModels/Vehicle-Models/L2-CV.add.xml,Roadworks\BaselinePenetration1\PreparingVehicleModels/Vehicle-Models/L2-CV-Left.add.xml,Roadworks\BaselinePenetration1\PreparingVehicleModels/Vehicle-Models/L2-CV-Right.add.xml,Roadworks\BaselinePenetration1\PreparingVehicleModels/Vehicle-Models/L2-AV.add.xml,Roadworks\BaselinePenetration1\PreparingVehicleModels/Vehicle-Models/L2-AV-Left.add.xml,Roadworks\BaselinePenetration1\PreparingVehicleModels/Vehicle-Models/L2-AV-Right.add.xml,Roadworks\BaselinePenetration1\PreparingVehicleModels/Vehicle-Models/L0-HDV.add.xml,Roadworks\BaselinePenetration1\PreparingVehicleModels/Vehicle-Models/L0-HDV-Left.add.xml,Roadworks\BaselinePenetration1\PreparingVehicleModels/Vehicle-Models/L0-HDV-Straight.add.xml"/>
    </input>

    <output>
        <tripinfo-output value="Roadworks\BaselinePenetration1\Output-Files\TripInfo.xml"/>
    </output>

    <time>
        <begin value="0"/>
        <step-length value="0.1"/>
    </time>

    <processing>
        <ignore-route-errors value="true"/>
        <waiting-time-memory value="300"/>
        <default.action-step-length value="0.1"/>
    </processing>

    <report>
        <no-warnings value="true"/>
    </report>

    <emissions>
        <device.emissions.probability value="1"/>
    </emissions>

    <traci_server>
        <remote-port value="55365"/>
    </traci_server>

    <gui_only>
        <start value="true"/>
        <tracker-interval value="0.1"/>
    </gui_only>

</configuration>
-->

<tripinfos xmlns:xsi="http://www.w3.org/2001/XMLSchema-instance" xsi:noNamespaceSchemaLocation="http://sumo.dlr.de/xsd/tripinfo_file.xsd">
    <tripinfo id="L4-AV-2" depart="16.80" departLane="right-approaching_0" departPos="5.10" departSpeed="0.00" departDelay="0.00" arrival="80.70" arrivalLane="top-exit_0" arrivalPos="486.40" arrivalSpeed="20.01" duration="63.90" routeLength="979.43" waitingTime="0.00" waitingCount="0" stopTime="0.00" timeLoss="14.09" rerouteNo="0" devices="tripinfo_L4-AV-2 emissions_L4-AV-2 ssm_L4-AV-2 toc_L4-AV-2 driverstateL4-AV-2" vType="L4-AV-0@L4-AV-2" speedFactor="1.20" vaporized="">
        <emissions CO_abs="2771.459168" CO2_abs="262739.562813" HC_abs="17.564472" PMx_abs="4.134276" NOx_abs="97.876902" fuel_abs="112.940602" electricity_abs="0"/>
    </tripinfo>
    <tripinfo id="L2-CV-3" depart="25.20" departLane="right-approaching_0" departPos="5.10" departSpeed="0.00" departDelay="0.00" arrival="86.60" arrivalLane="top-exit_0" arrivalPos="486.40" arrivalSpeed="20.84" duration="61.40" routeLength="979.43" waitingTime="0.00" waitingCount="0" stopTime="0.00" timeLoss="13.59" rerouteNo="0" devices="tripinfo_L2-CV-3 emissions_L2-CV-3 ssm_L2-CV-3 toc_L2-CV-3 driverstateL2-CV-3" vType="L2-CV-80@L2-CV-3" speedFactor="1.25" vaporized="">
        <emissions CO_abs="2654.977725" CO2_abs="264539.184427" HC_abs="17.907157" PMx_abs="4.317246" NOx_abs="99.188312" fuel_abs="113.714019" electricity_abs="0"/>
    </tripinfo>
    <tripinfo id="L0-HDV-1" depart="28.90" departLane="right-approaching_0" departPos="5.10" departSpeed="0.00" departDelay="2.90" arrival="101.60" arrivalLane="bottom-exit_0" arrivalPos="489.60" arrivalSpeed="15.48" duration="72.70" routeLength="992.90" waitingTime="0.00" waitingCount="0" stopTime="0.00" timeLoss="7.49" rerouteNo="0" devices="tripinfo_L0-HDV-1 emissions_L0-HDV-1 ssm_L0-HDV-1" vType="L0-HDV-15@L0-HDV-1" speedFactor="0.93" vaporized="">
        <emissions CO_abs="1916.717014" CO2_abs="165478.342892" HC_abs="11.517079" PMx_abs="2.369907" NOx_abs="62.081605" fuel_abs="71.132380" electricity_abs="0"/>
    </tripinfo>
    <tripinfo id="L4-CV-4" depart="8.60" departLane="right-approaching_0" departPos="5.10" departSpeed="0.00" departDelay="0.00" arrival="112.20" arrivalLane="left-exit_0" arrivalPos="831.00" arrivalSpeed="15.86" duration="103.60" routeLength="1399.16" waitingTime="1.70" waitingCount="1" stopTime="0.00" timeLoss="13.20" rerouteNo="0" devices="tripinfo_L4-CV-4 emissions_L4-CV-4 ssm_L4-CV-4 toc_L4-CV-4 driverstateL4-CV-4" vType="L4-CV-26@L4-CV-4" speedFactor="0.95" vaporized="">
        <emissions CO_abs="2687.355944" CO2_abs="309673.433802" HC_abs="15.286085" PMx_abs="3.492852" NOx_abs="107.048299" fuel_abs="133.116557" electricity_abs="0"/>
    </tripinfo>
    <tripinfo id="L0-HDV-0" depart="0.00" departLane="left-long-approaching_0" departPos="5.10" departSpeed="0.00" departDelay="0.00" arrival="112.90" arrivalLane="bottom-exit_0" arrivalPos="489.60" arrivalSpeed="13.26" duration="112.90" routeLength="1383.54" waitingTime="0.00" waitingCount="0" stopTime="0.00" timeLoss="6.06" rerouteNo="0" devices="tripinfo_L0-HDV-0 emissions_L0-HDV-0 ssm_L0-HDV-0" vType="L0-HDV-3@L0-HDV-0" speedFactor="0.80" vaporized="">
        <emissions CO_abs="4215.476412" CO2_abs="317228.906012" HC_abs="26.654749" PMx_abs="5.496788" NOx_abs="128.207230" fuel_abs="136.362815" electricity_abs="0"/>
    </tripinfo>
    <tripinfo id="L2-AV-2" depart="52.00" departLane="right-approaching_0" departPos="5.10" departSpeed="0.00" departDelay="0.00" arrival="116.00" arrivalLane="bottom-exit_1" arrivalPos="489.60" arrivalSpeed="19.02" duration="64.00" routeLength="992.90" waitingTime="0.00" waitingCount="0" stopTime="0.00" timeLoss="10.89" rerouteNo="0" devices="tripinfo_L2-AV-2 emissions_L2-AV-2 ssm_L2-AV-2 toc_L2-AV-2 driverstateL2-AV-2" vType="L2-AV-45@L2-AV-2" speedFactor="1.14" vaporized="">
        <emissions CO_abs="2267.618646" CO2_abs="220128.898708" HC_abs="13.980134" PMx_abs="3.345566" NOx_abs="81.428029" fuel_abs="94.624110" electricity_abs="0"/>
    </tripinfo>
    <tripinfo id="L4-CV-9" depart="19.40" departLane="left-long-approaching_0" departPos="5.10" departSpeed="0.00" departDelay="0.05" arrival="117.30" arrivalLane="top-exit_0" arrivalPos="486.40" arrivalSpeed="17.34" duration="97.90" routeLength="1393.12" waitingTime="2.70" waitingCount="1" stopTime="0.00" timeLoss="15.08" rerouteNo="1" devices="tripinfo_L4-CV-9 emissions_L4-CV-9 ssm_L4-CV-9 toc_L4-CV-9 driverstateL4-CV-9" vType="L4-CV-Left-8@L4-CV-9" speedFactor="1.04" vaporized="">
        <emissions CO_abs="3217.895240" CO2_abs="308624.631174" HC_abs="18.859461" PMx_abs="4.318939" NOx_abs="111.943940" fuel_abs="132.665104" electricity_abs="0"/>
    </tripinfo>
    <tripinfo id="L2-AV-0" depart="7.00" departLane="bottom-approaching_0" departPos="5.10" departSpeed="0.00" departDelay="7.00" arrival="145.50" arrivalLane="right-exit_0" arrivalPos="486.40" arrivalSpeed="16.95" duration="138.50" routeLength="979.93" waitingTime="65.70" waitingCount="1" stopTime="0.00" timeLoss="79.76" rerouteNo="0" devices="tripinfo_L2-AV-0 emissions_L2-AV-0 ssm_L2-AV-0 toc_L2-AV-0 driverstateL2-AV-0" vType="L2-AV-30@L2-AV-0" speedFactor="1.02" vaporized="">
        <emissions CO_abs="13540.628436" CO2_abs="419388.158399" HC_abs="68.849156" PMx_abs="7.710871" NOx_abs="168.801179" fuel_abs="180.282621" electricity_abs="0"/>
    </tripinfo>
    <tripinfo id="L4-CV-0" depart="0.00" departLane="bottom-approaching_0" departPos="5.10" departSpeed="0.00" departDelay="0.00" arrival="148.40" arrivalLane="top-exit_0" arrivalPos="486.40" arrivalSpeed="16.26" duration="148.40" routeLength="995.17" waitingTime="70.20" waitingCount="1" stopTime="0.00" timeLoss="87.11" rerouteNo="0" devices="tripinfo_L4-CV-0 emissions_L4-CV-0 ssm_L4-CV-0 toc_L4-CV-0 driverstateL4-CV-0" vType="L4-CV-89@L4-CV-0" speedFactor="0.98" vaporized="">
        <emissions CO_abs="14372.622034" CO2_abs="430928.325653" HC_abs="72.890289" PMx_abs="7.855692" NOx_abs="173.685457" fuel_abs="185.243850" electricity_abs="0"/>
    </tripinfo>
    <tripinfo id="L4-AV-5" depart="42.60" departLane="top-approaching_0" departPos="5.10" departSpeed="0.00" departDelay="0.60" arrival="148.70" arrivalLane="bottom-exit_1" arrivalPos="489.60" arrivalSpeed="17.64" duration="106.10" routeLength="995.17" waitingTime="0.00" waitingCount="0" stopTime="0.00" timeLoss="49.58" rerouteNo="0" devices="tripinfo_L4-AV-5 emissions_L4-AV-5 ssm_L4-AV-5 toc_L4-AV-5 driverstateL4-AV-5" vType="L4-AV-11@L4-AV-5" speedFactor="1.06" vaporized="">
        <emissions CO_abs="2972.060313" CO2_abs="238839.480696" HC_abs="17.590689" PMx_abs="3.548506" NOx_abs="89.598015" fuel_abs="102.667404" electricity_abs="0"/>
    </tripinfo>
    <tripinfo id="L2-CV-0" depart="3.60" departLane="bottom-approaching_0" departPos="5.10" departSpeed="0.00" departDelay="3.60" arrival="149.50" arrivalLane="top-exit_1" arrivalPos="486.40" arrivalSpeed="16.59" duration="145.90" routeLength="995.17" waitingTime="64.00" waitingCount="25" stopTime="0.00" timeLoss="86.00" rerouteNo="0" devices="tripinfo_L2-CV-0 emissions_L2-CV-0 ssm_L2-CV-0 toc_L2-CV-0 driverstateL2-CV-0" vType="L2-CV-56@L2-CV-0" speedFactor="1.00" vaporized="">
        <emissions CO_abs="11972.172962" CO2_abs="394194.466693" HC_abs="61.236793" PMx_abs="7.000506" NOx_abs="157.104886" fuel_abs="169.452320" electricity_abs="0"/>
    </tripinfo>
    <tripinfo id="L4-CV-3" depart="6.50" departLane="top-approaching_0" departPos="5.10" departSpeed="0.00" departDelay="0.05" arrival="150.10" arrivalLane="bottom-exit_0" arrivalPos="489.60" arrivalSpeed="15.01" duration="143.60" routeLength="995.17" waitingTime="63.40" waitingCount="1" stopTime="0.00" timeLoss="77.16" rerouteNo="0" devices="tripinfo_L4-CV-3 emissions_L4-CV-3 ssm_L4-CV-3 toc_L4-CV-3 driverstateL4-CV-3" vType="L4-CV-12@L4-CV-3" speedFactor="0.90" vaporized="">
        <emissions CO_abs="12922.611629" CO2_abs="405750.063673" HC_abs="65.818587" PMx_abs="7.018198" NOx_abs="161.379770" fuel_abs="174.420462" electricity_abs="0"/>
    </tripinfo>
    <tripinfo id="L2-CV-6" depart="50.70" departLane="top-approaching_0" departPos="5.10" departSpeed="0.00" departDelay="0.30" arrival="150.30" arrivalLane="bottom-exit_1" arrivalPos="489.60" arrivalSpeed="18.80" duration="99.60" routeLength="995.17" waitingTime="0.00" waitingCount="0" stopTime="0.00" timeLoss="46.52" rerouteNo="0" devices="tripinfo_L2-CV-6 emissions_L2-CV-6 ssm_L2-CV-6 toc_L2-CV-6 driverstateL2-CV-6" vType="L2-CV-50@L2-CV-6" speedFactor="1.13" vaporized="">
        <emissions CO_abs="3392.456230" CO2_abs="235617.212501" HC_abs="20.517330" PMx_abs="3.788847" NOx_abs="91.107631" fuel_abs="101.282343" electricity_abs="0"/>
    </tripinfo>
    <tripinfo id="L4-CV-6" depart="13.20" departLane="bottom-approaching_0" departPos="5.10" departSpeed="0.00" departDelay="0.30" arrival="150.70" arrivalLane="top-exit_1" arrivalPos="486.40" arrivalSpeed="18.26" duration="137.50" routeLength="995.17" waitingTime="59.10" waitingCount="28" stopTime="0.00" timeLoss="83.10" rerouteNo="0" devices="tripinfo_L4-CV-6 emissions_L4-CV-6 ssm_L4-CV-6 toc_L4-CV-6 driverstateL4-CV-6" vType="L4-CV-24@L4-CV-6" speedFactor="1.10" vaporized="">
        <emissions CO_abs="10956.790665" CO2_abs="342531.364366" HC_abs="57.092573" PMx_abs="6.729100" NOx_abs="141.680743" fuel_abs="147.243539" electricity_abs="0"/>
    </tripinfo>
    <tripinfo id="L4-CV-35" depart="75.30" departLane="top-approaching_0" departPos="5.10" departSpeed="0.00" departDelay="0.05" arrival="151.50" arrivalLane="bottom-exit_1" arrivalPos="489.60" arrivalSpeed="18.35" duration="76.20" routeLength="995.17" waitingTime="0.00" waitingCount="0" stopTime="0.00" timeLoss="21.85" rerouteNo="0" devices="tripinfo_L4-CV-35 emissions_L4-CV-35 ssm_L4-CV-35 toc_L4-CV-35 driverstateL4-CV-35" vType="L4-CV-54@L4-CV-35" speedFactor="1.10" vaporized="">
        <emissions CO_abs="3434.005344" CO2_abs="245953.552329" HC_abs="20.495814" PMx_abs="3.912192" NOx_abs="93.918994" fuel_abs="105.725503" electricity_abs="0"/>
    </tripinfo>
    <tripinfo id="L4-CV-12" depart="25.80" departLane="bottom-approaching_0" departPos="5.10" departSpeed="0.00" departDelay="0.00" arrival="152.20" arrivalLane="right-exit_1" arrivalPos="486.40" arrivalSpeed="16.00" duration="126.40" routeLength="979.93" waitingTime="41.90" waitingCount="25" stopTime="0.00" timeLoss="64.40" rerouteNo="0" devices="tripinfo_L4-CV-12 emissions_L4-CV-12 ssm_L4-CV-12 toc_L4-CV-12 driverstateL4-CV-12" vType="L4-CV-20@L4-CV-12" speedFactor="0.96" vaporized="">
        <emissions CO_abs="8311.053373" CO2_abs="319935.153765" HC_abs="43.669096" PMx_abs="5.387397" NOx_abs="125.938408" fuel_abs="137.529772" electricity_abs="0"/>
    </tripinfo>
    <tripinfo id="L4-CV-1" depart="10.40" departLane="bottom-approaching_0" departPos="5.10" departSpeed="0.00" departDelay="8.25" arrival="152.40" arrivalLane="right-exit_0" arrivalPos="486.40" arrivalSpeed="13.99" duration="142.00" routeLength="979.93" waitingTime="55.20" waitingCount="1" stopTime="0.00" timeLoss="71.05" rerouteNo="0" devices="tripinfo_L4-CV-1 emissions_L4-CV-1 ssm_L4-CV-1 toc_L4-CV-1 driverstateL4-CV-1" vType="L4-CV-74@L4-CV-1" speedFactor="0.84" vaporized="">
        <emissions CO_abs="9886.027585" CO2_abs="353953.391590" HC_abs="51.625952" PMx_abs="5.634069" NOx_abs="137.809306" fuel_abs="152.154189" electricity_abs="0"/>
    </tripinfo>
    <tripinfo id="L4-CV-19" depart="40.90" departLane="bottom-approaching_0" departPos="5.10" departSpeed="0.00" departDelay="0.05" arrival="152.90" arrivalLane="top-exit_0" arrivalPos="486.40" arrivalSpeed="16.46" duration="112.00" routeLength="995.17" waitingTime="30.80" waitingCount="28" stopTime="0.00" timeLoss="51.65" rerouteNo="0" devices="tripinfo_L4-CV-19 emissions_L4-CV-19 ssm_L4-CV-19 toc_L4-CV-19 driverstateL4-CV-19" vType="L4-CV-71@L4-CV-19" speedFactor="0.99" vaporized="">
        <emissions CO_abs="6142.150535" CO2_abs="307106.880559" HC_abs="32.637648" PMx_abs="4.699630" NOx_abs="116.181458" fuel_abs="132.014458" electricity_abs="0"/>
    </tripinfo>
    <tripinfo id="L2-CV-9" depart="78.50" departLane="top-approaching_0" departPos="5.10" departSpeed="0.00" departDelay="2.90" arrival="153.30" arrivalLane="bottom-exit_1" arrivalPos="489.60" arrivalSpeed="17.71" duration="74.80" routeLength="995.17" waitingTime="0.00" waitingCount="0" stopTime="0.00" timeLoss="18.54" rerouteNo="0" devices="tripinfo_L2-CV-9 emissions_L2-CV-9 ssm_L2-CV-9 toc_L2-CV-9 driverstateL2-CV-9" vType="L2-CV-13@L2-CV-9" speedFactor="1.06" vaporized="">
        <emissions CO_abs="2969.658846" CO2_abs="262990.523239" HC_abs="17.683081" PMx_abs="3.785216" NOx_abs="96.583173" fuel_abs="113.048960" electricity_abs="0"/>
    </tripinfo>
    <tripinfo id="L4-CV-29" depart="62.40" departLane="bottom-approaching_0" departPos="5.10" departSpeed="0.00" departDelay="0.05" arrival="153.90" arrivalLane="top-exit_1" arrivalPos="486.40" arrivalSpeed="19.80" duration="91.50" routeLength="995.17" waitingTime="16.00" waitingCount="30" stopTime="0.00" timeLoss="41.17" rerouteNo="0" devices="tripinfo_L4-CV-29 emissions_L4-CV-29 ssm_L4-CV-29 toc_L4-CV-29 driverstateL4-CV-29" vType="L4-CV-34@L4-CV-29" speedFactor="1.19" vaporized="">
        <emissions CO_abs="5272.029669" CO2_abs="304205.118824" HC_abs="30.496442" PMx_abs="5.285386" NOx_abs="118.415701" fuel_abs="130.765839" electricity_abs="0"/>
    </tripinfo>
    <tripinfo id="L0-HDV-3" depart="79.60" departLane="bottom-approaching_0" departPos="5.10" departSpeed="0.00" departDelay="1.60" arrival="154.00" arrivalLane="right-exit_1" arrivalPos="486.40" arrivalSpeed="18.91" duration="74.40" routeLength="979.93" waitingTime="0.00" waitingCount="0" stopTime="0.00" timeLoss="25.18" rerouteNo="0" devices="tripinfo_L0-HDV-3 emissions_L0-HDV-3 ssm_L0-HDV-3" vType="L0-HDV-57@L0-HDV-3" speedFactor="1.21" vaporized="">
        <emissions CO_abs="4609.906151" CO2_abs="284872.728387" HC_abs="27.794827" PMx_abs="5.553012" NOx_abs="117.643986" fuel_abs="122.454226" electricity_abs="0"/>
    </tripinfo>
    <tripinfo id="L2-CV-8" depart="67.20" departLane="bottom-approaching_0" departPos="5.10" departSpeed="0.00" departDelay="0.00" arrival="156.80" arrivalLane="top-exit_1" arrivalPos="486.40" arrivalSpeed="18.88" duration="89.60" routeLength="995.17" waitingTime="10.30" waitingCount="31" stopTime="0.00" timeLoss="36.81" rerouteNo="0" devices="tripinfo_L2-CV-8 emissions_L2-CV-8 ssm_L2-CV-8 toc_L2-CV-8 driverstateL2-CV-8" vType="L2-CV-56@L2-CV-8" speedFactor="1.13" vaporized="">
        <emissions CO_abs="4971.127589" CO2_abs="288489.493530" HC_abs="28.692422" PMx_abs="4.923816" NOx_abs="112.582900" fuel_abs="124.010317" electricity_abs="0"/>
    </tripinfo>
    <tripinfo id="L4-CV-23" depart="49.50" departLane="bottom-approaching_0" departPos="5.10" departSpeed="0.00" departDelay="0.05" arrival="157.10" arrivalLane="top-exit_0" arrivalPos="486.40" arrivalSpeed="14.99" duration="107.60" routeLength="995.17" waitingTime="22.20" waitingCount="30" stopTime="0.00" timeLoss="41.28" rerouteNo="0" devices="tripinfo_L4-CV-23 emissions_L4-CV-23 ssm_L4-CV-23 toc_L4-CV-23 driverstateL4-CV-23" vType="L4-CV-78@L4-CV-23" speedFactor="0.90" vaporized="">
        <emissions CO_abs="4908.979399" CO2_abs="282086.694380" HC_abs="26.614524" PMx_abs="3.863488" NOx_abs="104.285460" fuel_abs="121.259185" electricity_abs="0"/>
    </tripinfo>
    <tripinfo id="L2-AV-3" depart="78.00" departLane="bottom-approaching_0" departPos="5.10" departSpeed="0.00" departDelay="0.00" arrival="159.10" arrivalLane="top-exit_1" arrivalPos="486.40" arrivalSpeed="17.81" duration="81.10" routeLength="995.17" waitingTime="0.00" waitingCount="0" stopTime="0.00" timeLoss="25.14" rerouteNo="0" devices="tripinfo_L2-AV-3 emissions_L2-AV-3 ssm_L2-AV-3 toc_L2-AV-3 driverstateL2-AV-3" vType="L2-AV-45@L2-AV-3" speedFactor="1.07" vaporized="">
        <emissions CO_abs="2875.692201" CO2_abs="239361.249562" HC_abs="17.222570" PMx_abs="3.498226" NOx_abs="89.145201" fuel_abs="102.891733" electricity_abs="0"/>
    </tripinfo>
    <tripinfo id="L4-CV-38" depart="82.50" departLane="bottom-approaching_0" departPos="5.10" departSpeed="0.00" departDelay="0.80" arrival="161.30" arrivalLane="top-exit_1" arrivalPos="486.40" arrivalSpeed="17.23" duration="78.80" routeLength="995.17" waitingTime="0.00" waitingCount="0" stopTime="0.00" timeLoss="21.00" rerouteNo="0" devices="tripinfo_L4-CV-38 emissions_L4-CV-38 ssm_L4-CV-38 toc_L4-CV-38 driverstateL4-CV-38" vType="L4-CV-11@L4-CV-38" speedFactor="1.03" vaporized="">
        <emissions CO_abs="2841.154435" CO2_abs="254386.995661" HC_abs="16.709854" PMx_abs="3.514482" NOx_abs="92.819259" fuel_abs="109.350769" electricity_abs="0"/>
    </tripinfo>
    <tripinfo id="L4-CV-24" depart="52.60" departLane="bottom-approaching_0" departPos="5.10" departSpeed="0.00" departDelay="1.00" arrival="161.40" arrivalLane="right-exit_0" arrivalPos="486.40" arrivalSpeed="12.85" duration="108.80" routeLength="979.93" waitingTime="12.10" waitingCount="28" stopTime="0.00" timeLoss="31.36" rerouteNo="0" devices="tripinfo_L4-CV-24 emissions_L4-CV-24 ssm_L4-CV-24 toc_L4-CV-24 driverstateL4-CV-24" vType="L4-CV-71@L4-CV-24" speedFactor="0.77" vaporized="">
        <emissions CO_abs="4212.715201" CO2_abs="268951.759128" HC_abs="25.058825" PMx_abs="3.230900" NOx_abs="98.046405" fuel_abs="115.613429" electricity_abs="0"/>
    </tripinfo>
    <tripinfo id="L2-CV-10" depart="86.00" departLane="bottom-approaching_0" departPos="5.10" departSpeed="0.00" departDelay="2.00" arrival="161.40" arrivalLane="right-exit_1" arrivalPos="486.40" arrivalSpeed="16.91" duration="75.40" routeLength="979.93" waitingTime="0.00" waitingCount="0" stopTime="0.00" timeLoss="16.50" rerouteNo="0" devices="tripinfo_L2-CV-10 emissions_L2-CV-10 ssm_L2-CV-10 toc_L2-CV-10 driverstateL2-CV-10" vType="L2-CV-17@L2-CV-10" speedFactor="1.01" vaporized="">
        <emissions CO_abs="2610.085858" CO2_abs="229200.318108" HC_abs="16.098410" PMx_abs="3.349205" NOx_abs="85.946834" fuel_abs="98.523824" electricity_abs="0"/>
    </tripinfo>
    <tripinfo id="L4-AV-11" depart="92.40" departLane="top-approaching_0" departPos="5.10" departSpeed="0.00" departDelay="0.00" arrival="163.60" arrivalLane="bottom-exit_1" arrivalPos="489.60" arrivalSpeed="16.92" duration="71.20" routeLength="995.17" waitingTime="0.00" waitingCount="0" stopTime="0.00" timeLoss="12.28" rerouteNo="0" devices="tripinfo_L4-AV-11 emissions_L4-AV-11 ssm_L4-AV-11 toc_L4-AV-11 driverstateL4-AV-11" vType="L4-AV-52@L4-AV-11" speedFactor="1.01" vaporized="">
        <emissions CO_abs="1751.150857" CO2_abs="169119.739664" HC_abs="10.984989" PMx_abs="2.391591" NOx_abs="62.639751" fuel_abs="72.697627" electricity_abs="0"/>
    </tripinfo>
    <tripinfo id="L4-AV-10" depart="84.00" departLane="top-approaching_0" departPos="5.10" departSpeed="0.00" departDelay="0.00" arrival="166.10" arrivalLane="bottom-exit_0" arrivalPos="489.60" arrivalSpeed="13.66" duration="82.10" routeLength="995.17" waitingTime="0.10" waitingCount="1" stopTime="0.00" timeLoss="9.21" rerouteNo="0" devices="tripinfo_L4-AV-10 emissions_L4-AV-10 ssm_L4-AV-10 toc_L4-AV-10 driverstateL4-AV-10" vType="L4-AV-81@L4-AV-10" speedFactor="0.82" vaporized="">
        <emissions CO_abs="1777.603629" CO2_abs="220909.501378" HC_abs="11.708159" PMx_abs="2.149964" NOx_abs="75.905182" fuel_abs="94.960906" electricity_abs="0"/>
    </tripinfo>
    <tripinfo id="L2-CV-1" depart="10.00" departLane="top-approaching_0" departPos="5.10" departSpeed="0.00" departDelay="1.60" arrival="168.40" arrivalLane="left-exit_0" arrivalPos="831.00" arrivalSpeed="16.85" duration="158.40" routeLength="1386.28" waitingTime="63.10" waitingCount="1" stopTime="0.00" timeLoss="73.50" rerouteNo="0" devices="tripinfo_L2-CV-1 emissions_L2-CV-1 ssm_L2-CV-1 toc_L2-CV-1 driverstateL2-CV-1" vType="L2-CV-32@L2-CV-1" speedFactor="1.01" vaporized="">
        <emissions CO_abs="13064.772484" CO2_abs="464751.820455" HC_abs="67.348538" PMx_abs="8.244184" NOx_abs="184.100789" fuel_abs="199.782004" electricity_abs="0"/>
    </tripinfo>
    <tripinfo id="L4-CV-46" depart="98.90" departLane="bottom-approaching_0" departPos="5.10" departSpeed="0.00" departDelay="0.00" arrival="170.70" arrivalLane="right-exit_0" arrivalPos="486.40" arrivalSpeed="15.47" duration="71.80" routeLength="979.93" waitingTime="0.00" waitingCount="0" stopTime="0.00" timeLoss="7.47" rerouteNo="0" devices="tripinfo_L4-CV-46 emissions_L4-CV-46 ssm_L4-CV-46 toc_L4-CV-46 driverstateL4-CV-46" vType="L4-CV-9@L4-CV-46" speedFactor="0.93" vaporized="">
        <emissions CO_abs="1722.288813" CO2_abs="224697.900904" HC_abs="10.901945" PMx_abs="2.593862" NOx_abs="78.731139" fuel_abs="96.588685" electricity_abs="0"/>
    </tripinfo>
    <tripinfo id="L4-CV-16" depart="36.90" departLane="top-approaching_0" departPos="5.10" departSpeed="0.00" departDelay="2.50" arrival="171.60" arrivalLane="right-exit_1" arrivalPos="486.40" arrivalSpeed="16.15" duration="134.70" routeLength="992.21" waitingTime="54.60" waitingCount="2" stopTime="0.00" timeLoss="72.26" rerouteNo="0" devices="tripinfo_L4-CV-16 emissions_L4-CV-16 ssm_L4-CV-16 toc_L4-CV-16 driverstateL4-CV-16" vType="L4-CV-2@L4-CV-16" speedFactor="0.97" vaporized="">
        <emissions CO_abs="11830.305371" CO2_abs="395284.292019" HC_abs="60.978473" PMx_abs="7.120017" NOx_abs="158.894568" fuel_abs="169.920501" electricity_abs="0"/>
    </tripinfo>
    <tripinfo id="L4-AV-4" depart="33.60" departLane="top-approaching_0" departPos="5.10" departSpeed="0.00" departDelay="0.00" arrival="175.60" arrivalLane="right-exit_0" arrivalPos="486.40" arrivalSpeed="14.80" duration="142.00" routeLength="992.21" waitingTime="52.60" waitingCount="2" stopTime="0.00" timeLoss="73.84" rerouteNo="0" devices="tripinfo_L4-AV-4 emissions_L4-AV-4 ssm_L4-AV-4 toc_L4-AV-4 driverstateL4-AV-4" vType="L4-AV-84@L4-AV-4" speedFactor="0.89" vaporized="">
        <emissions CO_abs="11707.135883" CO2_abs="366453.008460" HC_abs="60.322722" PMx_abs="6.639870" NOx_abs="148.688180" fuel_abs="157.527365" electricity_abs="0"/>
    </tripinfo>
    <tripinfo id="L4-CV-18" depart="39.80" departLane="top-approaching_0" departPos="5.10" departSpeed="0.00" departDelay="1.10" arrival="177.50" arrivalLane="left-exit_0" arrivalPos="831.00" arrivalSpeed="18.01" duration="137.70" routeLength="1386.28" waitingTime="39.40" waitingCount="2" stopTime="0.00" timeLoss="58.43" rerouteNo="0" devices="tripinfo_L4-CV-18 emissions_L4-CV-18 ssm_L4-CV-18 toc_L4-CV-18 driverstateL4-CV-18" vType="L4-CV-62@L4-CV-18" speedFactor="1.08" vaporized="">
        <emissions CO_abs="8302.563597" CO2_abs="404700.814367" HC_abs="44.654660" PMx_abs="6.797964" NOx_abs="155.806964" fuel_abs="173.966154" electricity_abs="0"/>
    </tripinfo>
    <tripinfo id="L2-CV-5" depart="42.70" departLane="top-approaching_0" departPos="5.10" departSpeed="0.00" departDelay="0.70" arrival="183.00" arrivalLane="left-exit_0" arrivalPos="831.00" arrivalSpeed="18.09" duration="140.30" routeLength="1386.28" waitingTime="28.30" waitingCount="39" stopTime="0.00" timeLoss="61.39" rerouteNo="0" devices="tripinfo_L2-CV-5 emissions_L2-CV-5 ssm_L2-CV-5 toc_L2-CV-5 driverstateL2-CV-5" vType="L2-CV-86@L2-CV-5" speedFactor="1.09" vaporized="">
        <emissions CO_abs="7559.938618" CO2_abs="382560.891570" HC_abs="40.856650" PMx_abs="6.204420" NOx_abs="145.727837" fuel_abs="164.449110" electricity_abs="0"/>
    </tripinfo>
    <tripinfo id="L4-AV-3" depart="25.20" departLane="bottom-approaching_0" departPos="5.10" departSpeed="0.00" departDelay="0.00" arrival="195.00" arrivalLane="left-exit_0" arrivalPos="831.00" arrivalSpeed="17.70" duration="169.80" routeLength="1396.90" waitingTime="21.30" waitingCount="2" stopTime="0.00" timeLoss="88.38" rerouteNo="0" devices="tripinfo_L4-AV-3 emissions_L4-AV-3 ssm_L4-AV-3 toc_L4-AV-3 driverstateL4-AV-3" vType="L4-AV-54@L4-AV-3" speedFactor="1.06" vaporized="">
        <emissions CO_abs="6779.728503" CO2_abs="283386.157373" HC_abs="36.754202" PMx_abs="5.197538" NOx_abs="114.907398" fuel_abs="121.817449" electricity_abs="0"/>
    </tripinfo>
    <tripinfo id="L4-CV-57" depart="122.90" departLane="top-approaching_0" departPos="5.10" departSpeed="0.00" departDelay="0.35" arrival="195.60" arrivalLane="right-exit_0" arrivalPos="486.40" arrivalSpeed="15.02" duration="72.70" routeLength="992.21" waitingTime="0.00" waitingCount="0" stopTime="0.00" timeLoss="5.53" rerouteNo="0" devices="tripinfo_L4-CV-57 emissions_L4-CV-57 ssm_L4-CV-57 toc_L4-CV-57 driverstateL4-CV-57" vType="L4-CV-39@L4-CV-57" speedFactor="0.90" vaporized="">
        <emissions CO_abs="1401.856802" CO2_abs="216428.328199" HC_abs="9.258831" PMx_abs="2.267794" NOx_abs="74.265035" fuel_abs="93.034059" electricity_abs="0"/>
    </tripinfo>
    <tripinfo id="L4-CV-25" depart="55.70" departLane="right-approaching_0" departPos="5.10" departSpeed="0.00" departDelay="1.95" arrival="195.70" arrivalLane="top-exit_0" arrivalPos="486.40" arrivalSpeed="17.02" duration="140.00" routeLength="979.43" waitingTime="69.90" waitingCount="1" stopTime="0.00" timeLoss="81.43" rerouteNo="0" devices="tripinfo_L4-CV-25 emissions_L4-CV-25 ssm_L4-CV-25 toc_L4-CV-25 driverstateL4-CV-25" vType="L4-CV-39@L4-CV-25" speedFactor="1.02" vaporized="">
        <emissions CO_abs="13825.400061" CO2_abs="422957.030777" HC_abs="70.405948" PMx_abs="7.874922" NOx_abs="170.759290" fuel_abs="181.816817" electricity_abs="0"/>
    </tripinfo>
    <tripinfo id="L4-CV-37" depart="79.60" departLane="right-approaching_0" departPos="5.10" departSpeed="0.00" departDelay="0.05" arrival="199.00" arrivalLane="top-exit_0" arrivalPos="486.40" arrivalSpeed="16.62" duration="119.40" routeLength="979.43" waitingTime="41.90" waitingCount="24" stopTime="0.00" timeLoss="59.58" rerouteNo="0" devices="tripinfo_L4-CV-37 emissions_L4-CV-37 ssm_L4-CV-37 toc_L4-CV-37 driverstateL4-CV-37" vType="L4-CV-33@L4-CV-37" speedFactor="1.00" vaporized="">
        <emissions CO_abs="7752.041546" CO2_abs="328431.479587" HC_abs="40.834663" PMx_abs="5.378119" NOx_abs="126.969416" fuel_abs="141.181682" electricity_abs="0"/>
    </tripinfo>
    <tripinfo id="L4-CV-10" depart="22.50" departLane="left-long-approaching_0" departPos="5.10" departSpeed="0.00" departDelay="1.00" arrival="200.10" arrivalLane="bottom-exit_0" arrivalPos="489.60" arrivalSpeed="16.81" duration="177.60" routeLength="1383.54" waitingTime="74.40" waitingCount="1" stopTime="0.00" timeLoss="92.77" rerouteNo="0" devices="tripinfo_L4-CV-10 emissions_L4-CV-10 ssm_L4-CV-10 toc_L4-CV-10 driverstateL4-CV-10" vType="L4-CV-Right-13@L4-CV-10" speedFactor="1.01" vaporized="">
        <emissions CO_abs="15297.118933" CO2_abs="510127.945558" HC_abs="78.073021" PMx_abs="8.767584" NOx_abs="200.302291" fuel_abs="219.288977" electricity_abs="0"/>
    </tripinfo>