<edges>
    <edge id="left-long-approaching" from="left-node" to="center" priority="78" numLanes="3" speed="16.6667" />
    <edge id="left-exit" from="center" to="left-node" priority="46" numLanes="2" speed="16.6667" />
 
    <edge id="top-approaching" from="top-node" to="center" priority="78" numLanes="3" speed="16.6667" />
    <edge id="top-exit" from="center" to="top-node" priority="46" numLanes="2" speed="16.6667" />
 
    <edge id="right-approaching" from="right-node" to="center" priority="78" numLanes="3" speed="16.6667" />
    <edge id="right-exit" from="center" to="right-node" priority="46" numLanes="2" speed="16.6667" />
    
    <edge id="bottom-approaching" from="bottom-node" to="center" priority="78" numLanes="3" speed="16.6667" />
    <edge id="bottom-exit" from="center" to="bottom-node" priority="46" numLanes="2" speed="16.6667" />
</edges>