<connections>
	<connection from="left-long-approaching" to="bottom-exit" fromLane="0" toLane="0"/>
	<connection from="left-long-approaching" to="top-exit" fromLane="2" toLane="1"/>
	<connection from="left-long-approaching" to="right-exit" fromLane="1" toLane="1"/>
	
	<connection from="top-approaching" to="left-exit" fromLane="0" toLane="0"/>
	<connection from="top-approaching" to="bottom-exit" fromLane="1" toLane="1"/>
	<connection from="top-approaching" to="right-exit" fromLane="2" toLane="1"/>
	
	<connection from="right-approaching" to="top-exit" fromLane="0" toLane="0"/>
	<connection from="right-approaching" to="left-exit" fromLane="1" toLane="1"/>
	<connection from="right-approaching" to="bottom-exit" fromLane="2" toLane="1"/>
	
	<connection from="bottom-approaching" to="right-exit" fromLane="0" toLane="0"/>
	<connection from="bottom-approaching" to="top-exit" fromLane="1" toLane="1"/>
	<connection from="bottom-approaching" to="left-exit" fromLane="2" toLane="1"/>
</connections>