<?xml version="1.0" ?><!-- generated on 03/31/21 21:57:48 by Eclipse SUMO duarouter Version 1.8.0
<configuration xmlns:xsi="http://www.w3.org/2001/XMLSchema-instance" xsi:noNamespaceSchemaLocation="http://sumo.dlr.de/xsd/duarouterConfiguration.xsd">

    <input>
        <net-file value="Collision/CollisionIntersection.net.xml"/>
        <route-files value="trips.trips.xml"/>
    </input>

    <output>
        <output-file value="Collision/RealTMSCAV/Route-Files/L4-CV-Route.rou.xml"/>
        <alternatives-output value="Collision/RealTMSCAV/Route-Files/L4-CV-Route.rou.alt.xml"/>
    </output>

    <time>
        <begin value="120"/>
        <end value="3600"/>
    </time>

    <report>
        <no-warnings value="true"/>
        <ignore-errors value="true"/>
        <no-step-log value="true"/>
    </report>

</configuration>
--><routes xmlns:xsi="http://www.w3.org/2001/XMLSchema-instance" xsi:noNamespaceSchemaLocation="http://sumo.dlr.de/xsd/routes_file.xsd">
    <vehicle id="L4-CV-2" type="L4-CV-" depart="123.72">
        <route edges="bottom-approaching right-exit"/>
    </vehicle>
    <vehicle id="L4-CV-3" type="L4-CV-Left-" depart="125.58">
        <route edges="left-long-approaching left-short-approaching top-exit"/>
    </vehicle>
    <vehicle id="L4-CV-4" type="L4-CV-Left-" depart="127.44">
        <route edges="left-long-approaching left-short-approaching top-exit"/>
    </vehicle>
    <vehicle id="L4-CV-6" type="L4-CV-" depart="131.16">
        <route edges="right-approaching left-exit-blockage left-exit"/>
    </vehicle>
    <vehicle id="L4-CV-8" type="L4-CV-" depart="134.88">
        <route edges="bottom-approaching right-exit"/>
    </vehicle>
    <vehicle id="L4-CV-9" type="L4-CV-" depart="136.74">
        <route edges="top-approaching left-exit-blockage left-exit"/>
    </vehicle>
    <vehicle id="L4-CV-10" type="L4-CV-" depart="138.60">
        <route edges="top-approaching right-exit"/>
    </vehicle>
    <vehicle id="L4-CV-11" type="L4-CV-" depart="140.46">
        <route edges="top-approaching left-exit-blockage left-exit"/>
    </vehicle>
    <vehicle id="L4-CV-12" type="L4-CV-" depart="142.32">
        <route edges="bottom-approaching top-exit"/>
    </vehicle>
    <vehicle id="L4-CV-13" type="L4-CV-" depart="144.18">
        <route edges="top-approaching left-exit-blockage left-exit"/>
    </vehicle>
    <vehicle id="L4-CV-15" type="L4-CV-" depart="147.90">
        <route edges="right-approaching left-exit-blockage left-exit"/>
    </vehicle>
    <vehicle id="L4-CV-16" type="L4-CV-" depart="149.76">
        <route edges="top-approaching right-exit"/>
    </vehicle>
    <vehicle id="L4-CV-17" type="L4-CV-" depart="151.62">
        <route edges="bottom-approaching right-exit"/>
    </vehicle>
    <vehicle id="L4-CV-18" type="L4-CV-Left-" depart="153.48">
        <route edges="left-long-approaching left-short-approaching top-exit"/>
    </vehicle>
    <vehicle id="L4-CV-22" type="L4-CV-" depart="160.92">
        <route edges="bottom-approaching left-exit-blockage left-exit"/>
    </vehicle>
    <vehicle id="L4-CV-23" type="L4-CV-" depart="162.78">
        <route edges="right-approaching left-exit-blockage left-exit"/>
    </vehicle>
    <vehicle id="L4-CV-24" type="L4-CV-" depart="164.64">
        <route edges="right-approaching bottom-exit"/>
    </vehicle>
    <vehicle id="L4-CV-25" type="L4-CV-" depart="166.50">
        <route edges="top-approaching right-exit"/>
    </vehicle>
    <vehicle id="L4-CV-26" type="L4-CV-" depart="168.36">
        <route edges="bottom-approaching right-exit"/>
    </vehicle>
    <vehicle id="L4-CV-27" type="L4-CV-Right-" depart="170.22">
        <route edges="left-long-approaching left-short-approaching bottom-exit"/>
    </vehicle>
    <vehicle id="L4-CV-28" type="L4-CV-Right-" depart="172.08">
        <route edges="left-long-approaching left-short-approaching bottom-exit"/>
    </vehicle>
    <vehicle id="L4-CV-29" type="L4-CV-" depart="173.94">
        <route edges="bottom-approaching top-exit"/>
    </vehicle>
    <vehicle id="L4-CV-30" type="L4-CV-" depart="175.80">
        <route edges="right-approaching bottom-exit"/>
    </vehicle>
    <vehicle id="L4-CV-31" type="L4-CV-" depart="177.66">
        <route edges="top-approaching bottom-exit"/>
    </vehicle>
    <vehicle id="L4-CV-32" type="L4-CV-Left-" depart="179.52">
        <route edges="left-long-approaching left-short-approaching top-exit"/>
    </vehicle>
    <vehicle id="L4-CV-33" type="L4-CV-" depart="181.38">
        <route edges="right-approaching left-exit-blockage left-exit"/>
    </vehicle>
    <vehicle id="L4-CV-35" type="L4-CV-" depart="185.10">
        <route edges="bottom-approaching top-exit"/>
    </vehicle>
    <vehicle id="L4-CV-36" type="L4-CV-" depart="186.96">
        <route edges="bottom-approaching left-exit-blockage left-exit"/>
    </vehicle>
    <vehicle id="L4-CV-37" type="L4-CV-" depart="188.82">
        <route edges="right-approaching left-exit-blockage left-exit"/>
    </vehicle>
    <vehicle id="L4-CV-38" type="L4-CV-" depart="190.68">
        <route edges="top-approaching left-exit-blockage left-exit"/>
    </vehicle>
    <vehicle id="L4-CV-40" type="L4-CV-" depart="194.40">
        <route edges="right-approaching top-exit"/>
    </vehicle>
    <vehicle id="L4-CV-41" type="L4-CV-Left-" depart="196.26">
        <route edges="left-long-approaching left-short-approaching top-exit"/>
    </vehicle>
    <vehicle id="L4-CV-43" type="L4-CV-" depart="199.98">
        <route edges="left-long-approaching left-short-approaching right-exit"/>
    </vehicle>
    <vehicle id="L4-CV-44" type="L4-CV-Right-" depart="201.84">
        <route edges="left-long-approaching left-short-approaching bottom-exit"/>
    </vehicle>
    <vehicle id="L4-CV-45" type="L4-CV-" depart="203.70">
        <route edges="right-approaching left-exit-blockage left-exit"/>
    </vehicle>
    <vehicle id="L4-CV-46" type="L4-CV-Left-" depart="205.56">
        <route edges="left-long-approaching left-short-approaching top-exit"/>
    </vehicle>
    <vehicle id="L4-CV-48" type="L4-CV-" depart="209.28">
        <route edges="bottom-approaching right-exit"/>
    </vehicle>
    <vehicle id="L4-CV-50" type="L4-CV-Left-" depart="213.00">
        <route edges="left-long-approaching left-short-approaching top-exit"/>
    </vehicle>
    <vehicle id="L4-CV-51" type="L4-CV-" depart="214.86">
        <route edges="bottom-approaching left-exit-blockage left-exit"/>
    </vehicle>
    <vehicle id="L4-CV-52" type="L4-CV-" depart="216.72">
        <route edges="top-approaching right-exit"/>
    </vehicle>
    <vehicle id="L4-CV-53" type="L4-CV-" depart="218.58">
        <route edges="top-approaching left-exit-blockage left-exit"/>
    </vehicle>
    <vehicle id="L4-CV-54" type="L4-CV-Right-" depart="220.44">
        <route edges="left-long-approaching left-short-approaching bottom-exit"/>
    </vehicle>
    <vehicle id="L4-CV-56" type="L4-CV-" depart="224.16">
        <route edges="top-approaching left-exit-blockage left-exit"/>
    </vehicle>
    <vehicle id="L4-CV-57" type="L4-CV-" depart="226.02">
        <route edges="right-approaching top-exit"/>
    </vehicle>
    <vehicle id="L4-CV-58" type="L4-CV-" depart="227.88">
        <route edges="top-approaching left-exit-blockage left-exit"/>
    </vehicle>
    <vehicle id="L4-CV-59" type="L4-CV-" depart="229.74">
        <route edges="right-approaching left-exit-blockage left-exit"/>
    </vehicle>
    <vehicle id="L4-CV-60" type="L4-CV-Left-" depart="231.60">
        <route edges="left-long-approaching left-short-approaching top-exit"/>
    </vehicle>
    <vehicle id="L4-CV-62" type="L4-CV-Right-" depart="235.32">
        <route edges="left-long-approaching left-short-approaching bottom-exit"/>
    </vehicle>
    <vehicle id="L4-CV-63" type="L4-CV-Right-" depart="237.18">
        <route edges="left-long-approaching left-short-approaching bottom-exit"/>
    </vehicle>
    <vehicle id="L4-CV-64" type="L4-CV-" depart="239.04">
        <route edges="bottom-approaching top-exit"/>
    </vehicle>
    <vehicle id="L4-CV-65" type="L4-CV-" depart="240.90">
        <route edges="bottom-approaching right-exit"/>
    </vehicle>
    <vehicle id="L4-CV-66" type="L4-CV-Left-" depart="242.76">
        <route edges="left-long-approaching left-short-approaching top-exit"/>
    </vehicle>
    <vehicle id="L4-CV-67" type="L4-CV-" depart="244.62">
        <route edges="top-approaching bottom-exit"/>
    </vehicle>
    <vehicle id="L4-CV-68" type="L4-CV-" depart="246.48">
        <route edges="bottom-approaching top-exit"/>
    </vehicle>
    <vehicle id="L4-CV-69" type="L4-CV-" depart="248.34">
        <route edges="right-approaching left-exit-blockage left-exit"/>
    </vehicle>
    <vehicle id="L4-CV-72" type="L4-CV-" depart="253.92">
        <route edges="bottom-approaching left-exit-blockage left-exit"/>
    </vehicle>
    <vehicle id="L4-CV-73" type="L4-CV-" depart="255.78">
        <route edges="bottom-approaching right-exit"/>
    </vehicle>
    <vehicle id="L4-CV-74" type="L4-CV-" depart="257.64">
        <route edges="right-approaching bottom-exit"/>
    </vehicle>
    <vehicle id="L4-CV-75" type="L4-CV-" depart="259.50">
        <route edges="right-approaching bottom-exit"/>
    </vehicle>
    <vehicle id="L4-CV-76" type="L4-CV-" depart="261.36">
        <route edges="bottom-approaching right-exit"/>
    </vehicle>
    <vehicle id="L4-CV-77" type="L4-CV-Left-" depart="263.22">
        <route edges="left-long-approaching left-short-approaching top-exit"/>
    </vehicle>
    <vehicle id="L4-CV-79" type="L4-CV-" depart="266.94">
        <route edges="bottom-approaching top-exit"/>
    </vehicle>
    <vehicle id="L4-CV-80" type="L4-CV-" depart="268.80">
        <route edges="bottom-approaching right-exit"/>
    </vehicle>
    <vehicle id="L4-CV-82" type="L4-CV-" depart="272.52">
        <route edges="top-approaching left-exit-blockage left-exit"/>
    </vehicle>
    <vehicle id="L4-CV-83" type="L4-CV-" depart="274.38">
        <route edges="right-approaching top-exit"/>
    </vehicle>
    <vehicle id="L4-CV-84" type="L4-CV-" depart="276.24">
        <route edges="bottom-approaching top-exit"/>
    </vehicle>
    <vehicle id="L4-CV-85" type="L4-CV-" depart="278.10">
        <route edges="top-approaching left-exit-blockage left-exit"/>
    </vehicle>
    <vehicle id="L4-CV-86" type="L4-CV-" depart="279.96">
        <route edges="top-approaching left-exit-blockage left-exit"/>
    </vehicle>
    <vehicle id="L4-CV-88" type="L4-CV-" depart="283.68">
        <route edges="bottom-approaching top-exit"/>
    </vehicle>
    <vehicle id="L4-CV-89" type="L4-CV-" depart="285.54">
        <route edges="top-approaching left-exit-blockage left-exit"/>
    </vehicle>
    <vehicle id="L4-CV-90" type="L4-CV-" depart="287.40">
        <route edges="top-approaching bottom-exit"/>
    </vehicle>
    <vehicle id="L4-CV-91" type="L4-CV-" depart="289.26">
        <route edges="top-approaching left-exit-blockage left-exit"/>
    </vehicle>
    <vehicle id="L4-CV-92" type="L4-CV-" depart="291.12">
        <route edges="top-approaching left-exit-blockage left-exit"/>
    </vehicle>
    <vehicle id="L4-CV-93" type="L4-CV-" depart="292.98">
        <route edges="top-approaching bottom-exit"/>
    </vehicle>
    <vehicle id="L4-CV-94" type="L4-CV-" depart="294.84">
        <route edges="bottom-approaching top-exit"/>
    </vehicle>
    <vehicle id="L4-CV-97" type="L4-CV-Right-" depart="300.42">
        <route edges="left-long-approaching left-short-approaching bottom-exit"/>
    </vehicle>
    <vehicle id="L4-CV-99" type="L4-CV-" depart="304.14">
        <route edges="top-approaching right-exit"/>
    </vehicle>
    <vehicle id="L4-CV-100" type="L4-CV-Right-" depart="306.00">
        <route edges="left-long-approaching left-short-approaching bottom-exit"/>
    </vehicle>
    <vehicle id="L4-CV-101" type="L4-CV-" depart="307.86">
        <route edges="right-approaching bottom-exit"/>
    </vehicle>
    <vehicle id="L4-CV-102" type="L4-CV-" depart="309.72">
        <route edges="right-approaching left-exit-blockage left-exit"/>
    </vehicle>
    <vehicle id="L4-CV-103" type="L4-CV-Right-" depart="311.58">
        <route edges="left-long-approaching left-short-approaching bottom-exit"/>
    </vehicle>
    <vehicle id="L4-CV-104" type="L4-CV-" depart="313.44">
        <route edges="bottom-approaching right-exit"/>
    </vehicle>
    <vehicle id="L4-CV-105" type="L4-CV-" depart="315.30">
        <route edges="bottom-approaching right-exit"/>
    </vehicle>
    <vehicle id="L4-CV-106" type="L4-CV-" depart="317.16">
        <route edges="bottom-approaching left-exit-blockage left-exit"/>
    </vehicle>
    <vehicle id="L4-CV-107" type="L4-CV-" depart="319.02">
        <route edges="bottom-approaching right-exit"/>
    </vehicle>
    <vehicle id="L4-CV-108" type="L4-CV-Right-" depart="320.88">
        <route edges="left-long-approaching left-short-approaching bottom-exit"/>
    </vehicle>
    <vehicle id="L4-CV-109" type="L4-CV-" depart="322.74">
        <route edges="bottom-approaching right-exit"/>
    </vehicle>
    <vehicle id="L4-CV-110" type="L4-CV-" depart="324.60">
        <route edges="top-approaching left-exit-blockage left-exit"/>
    </vehicle>
    <vehicle id="L4-CV-111" type="L4-CV-" depart="326.46">
        <route edges="bottom-approaching left-exit-blockage left-exit"/>
    </vehicle>
    <vehicle id="L4-CV-112" type="L4-CV-" depart="328.32">
        <route edges="bottom-approaching right-exit"/>
    </vehicle>
    <vehicle id="L4-CV-113" type="L4-CV-" depart="330.18">
        <route edges="top-approaching right-exit"/>
    </vehicle>
    <vehicle id="L4-CV-114" type="L4-CV-" depart="332.04">
        <route edges="bottom-approaching left-exit-blockage left-exit"/>
    </vehicle>
    <vehicle id="L4-CV-116" type="L4-CV-Left-" depart="335.76">
        <route edges="left-long-approaching left-short-approaching top-exit"/>
    </vehicle>
    <vehicle id="L4-CV-119" type="L4-CV-" depart="341.34">
        <route edges="top-approaching left-exit-blockage left-exit"/>
    </vehicle>
    <vehicle id="L4-CV-120" type="L4-CV-" depart="343.20">
        <route edges="right-approaching top-exit"/>
    </vehicle>
    <vehicle id="L4-CV-121" type="L4-CV-" depart="345.06">
        <route edges="bottom-approaching right-exit"/>
    </vehicle>
    <vehicle id="L4-CV-122" type="L4-CV-Right-" depart="346.92">
        <route edges="left-long-approaching left-short-approaching bottom-exit"/>
    </vehicle>
    <vehicle id="L4-CV-123" type="L4-CV-" depart="348.78">
        <route edges="bottom-approaching right-exit"/>
    </vehicle>
    <vehicle id="L4-CV-124" type="L4-CV-" depart="350.64">
        <route edges="bottom-approaching right-exit"/>
    </vehicle>
    <vehicle id="L4-CV-125" type="L4-CV-" depart="352.50">
        <route edges="bottom-approaching left-exit-blockage left-exit"/>
    </vehicle>
    <vehicle id="L4-CV-126" type="L4-CV-" depart="354.36">
        <route edges="bottom-approaching right-exit"/>
    </vehicle>
    <vehicle id="L4-CV-127" type="L4-CV-" depart="356.22">
        <route edges="top-approaching bottom-exit"/>
    </vehicle>
    <vehicle id="L4-CV-128" type="L4-CV-" depart="358.08">
        <route edges="right-approaching top-exit"/>
    </vehicle>
    <vehicle id="L4-CV-130" type="L4-CV-" depart="361.80">
        <route edges="right-approaching top-exit"/>
    </vehicle>
    <vehicle id="L4-CV-131" type="L4-CV-" depart="363.66">
        <route edges="bottom-approaching right-exit"/>
    </vehicle>
    <vehicle id="L4-CV-133" type="L4-CV-" depart="367.38">
        <route edges="top-approaching bottom-exit"/>
    </vehicle>
    <vehicle id="L4-CV-134" type="L4-CV-" depart="369.24">
        <route edges="top-approaching right-exit"/>
    </vehicle>
    <vehicle id="L4-CV-136" type="L4-CV-" depart="372.96">
        <route edges="right-approaching left-exit-blockage left-exit"/>
    </vehicle>
    <vehicle id="L4-CV-137" type="L4-CV-Right-" depart="374.82">
        <route edges="left-long-approaching left-short-approaching bottom-exit"/>
    </vehicle>
    <vehicle id="L4-CV-139" type="L4-CV-" depart="378.54">
        <route edges="top-approaching bottom-exit"/>
    </vehicle>
    <vehicle id="L4-CV-140" type="L4-CV-" depart="380.40">
        <route edges="right-approaching left-exit-blockage left-exit"/>
    </vehicle>
    <vehicle id="L4-CV-141" type="L4-CV-" depart="382.26">
        <route edges="top-approaching right-exit"/>
    </vehicle>
    <vehicle id="L4-CV-142" type="L4-CV-" depart="384.12">
        <route edges="top-approaching right-exit"/>
    </vehicle>
    <vehicle id="L4-CV-143" type="L4-CV-" depart="385.98">
        <route edges="right-approaching top-exit"/>
    </vehicle>
    <vehicle id="L4-CV-144" type="L4-CV-" depart="387.84">
        <route edges="bottom-approaching right-exit"/>
    </vehicle>
    <vehicle id="L4-CV-145" type="L4-CV-" depart="389.70">
        <route edges="bottom-approaching left-exit-blockage left-exit"/>
    </vehicle>
    <vehicle id="L4-CV-146" type="L4-CV-" depart="391.56">
        <route edges="bottom-approaching top-exit"/>
    </vehicle>
    <vehicle id="L4-CV-147" type="L4-CV-" depart="393.42">
        <route edges="bottom-approaching top-exit"/>
    </vehicle>
    <vehicle id="L4-CV-148" type="L4-CV-" depart="395.28">
        <route edges="top-approaching left-exit-blockage left-exit"/>
    </vehicle>
    <vehicle id="L4-CV-149" type="L4-CV-" depart="397.14">
        <route edges="top-approaching bottom-exit"/>
    </vehicle>
    <vehicle id="L4-CV-152" type="L4-CV-" depart="402.72">
        <route edges="top-approaching bottom-exit"/>
    </vehicle>
    <vehicle id="L4-CV-153" type="L4-CV-" depart="404.58">
        <route edges="right-approaching left-exit-blockage left-exit"/>
    </vehicle>
    <vehicle id="L4-CV-154" type="L4-CV-" depart="406.44">
        <route edges="bottom-approaching left-exit-blockage left-exit"/>
    </vehicle>
    <vehicle id="L4-CV-155" type="L4-CV-" depart="408.30">
        <route edges="bottom-approaching top-exit"/>
    </vehicle>
    <vehicle id="L4-CV-156" type="L4-CV-" depart="410.16">
        <route edges="left-long-approaching left-short-approaching right-exit"/>
    </vehicle>
    <vehicle id="L4-CV-159" type="L4-CV-" depart="415.74">
        <route edges="bottom-approaching top-exit"/>
    </vehicle>
    <vehicle id="L4-CV-160" type="L4-CV-" depart="417.60">
        <route edges="bottom-approaching left-exit-blockage left-exit"/>
    </vehicle>
    <vehicle id="L4-CV-161" type="L4-CV-" depart="419.46">
        <route edges="top-approaching right-exit"/>
    </vehicle>
    <vehicle id="L4-CV-163" type="L4-CV-Right-" depart="423.18">
        <route edges="left-long-approaching left-short-approaching bottom-exit"/>
    </vehicle>
    <vehicle id="L4-CV-164" type="L4-CV-" depart="425.04">
        <route edges="right-approaching left-exit-blockage left-exit"/>
    </vehicle>
    <vehicle id="L4-CV-165" type="L4-CV-" depart="426.90">
        <route edges="top-approaching right-exit"/>
    </vehicle>
    <vehicle id="L4-CV-166" type="L4-CV-" depart="428.76">
        <route edges="right-approaching top-exit"/>
    </vehicle>
    <vehicle id="L4-CV-167" type="L4-CV-Left-" depart="430.62">
        <route edges="left-long-approaching left-short-approaching top-exit"/>
    </vehicle>
    <vehicle id="L4-CV-168" type="L4-CV-" depart="432.48">
        <route edges="top-approaching bottom-exit"/>
    </vehicle>
    <vehicle id="L4-CV-170" type="L4-CV-" depart="436.20">
        <route edges="top-approaching left-exit-blockage left-exit"/>
    </vehicle>
    <vehicle id="L4-CV-172" type="L4-CV-Left-" depart="439.92">
        <route edges="left-long-approaching left-short-approaching top-exit"/>
    </vehicle>
    <vehicle id="L4-CV-173" type="L4-CV-Right-" depart="441.78">
        <route edges="left-long-approaching left-short-approaching bottom-exit"/>
    </vehicle>
    <vehicle id="L4-CV-174" type="L4-CV-Right-" depart="443.64">
        <route edges="left-long-approaching left-short-approaching bottom-exit"/>
    </vehicle>
    <vehicle id="L4-CV-175" type="L4-CV-" depart="445.50">
        <route edges="right-approaching top-exit"/>
    </vehicle>
    <vehicle id="L4-CV-176" type="L4-CV-" depart="447.36">
        <route edges="top-approaching bottom-exit"/>
    </vehicle>
    <vehicle id="L4-CV-177" type="L4-CV-Right-" depart="449.22">
        <route edges="left-long-approaching left-short-approaching bottom-exit"/>
    </vehicle>
    <vehicle id="L4-CV-179" type="L4-CV-" depart="452.94">
        <route edges="right-approaching top-exit"/>
    </vehicle>
    <vehicle id="L4-CV-180" type="L4-CV-" depart="454.80">
        <route edges="right-approaching top-exit"/>
    </vehicle>
    <vehicle id="L4-CV-183" type="L4-CV-" depart="460.38">
        <route edges="right-approaching top-exit"/>
    </vehicle>
    <vehicle id="L4-CV-184" type="L4-CV-" depart="462.24">
        <route edges="right-approaching top-exit"/>
    </vehicle>
    <vehicle id="L4-CV-186" type="L4-CV-" depart="465.96">
        <route edges="bottom-approaching right-exit"/>
    </vehicle>
    <vehicle id="L4-CV-187" type="L4-CV-" depart="467.82">
        <route edges="right-approaching bottom-exit"/>
    </vehicle>
    <vehicle id="L4-CV-188" type="L4-CV-Right-" depart="469.68">
        <route edges="left-long-approaching left-short-approaching bottom-exit"/>
    </vehicle>
    <vehicle id="L4-CV-189" type="L4-CV-" depart="471.54">
        <route edges="right-approaching top-exit"/>
    </vehicle>
    <vehicle id="L4-CV-190" type="L4-CV-" depart="473.40">
        <route edges="bottom-approaching top-exit"/>
    </vehicle>
    <vehicle id="L4-CV-191" type="L4-CV-" depart="475.26">
        <route edges="right-approaching bottom-exit"/>
    </vehicle>
    <vehicle id="L4-CV-192" type="L4-CV-Right-" depart="477.12">
        <route edges="left-long-approaching left-short-approaching bottom-exit"/>
    </vehicle>
    <vehicle id="L4-CV-193" type="L4-CV-" depart="478.98">
        <route edges="right-approaching top-exit"/>
    </vehicle>
    <vehicle id="L4-CV-195" type="L4-CV-" depart="482.70">
        <route edges="right-approaching top-exit"/>
    </vehicle>
    <vehicle id="L4-CV-196" type="L4-CV-" depart="484.56">
        <route edges="right-approaching left-exit-blockage left-exit"/>
    </vehicle>
    <vehicle id="L4-CV-197" type="L4-CV-" depart="486.42">
        <route edges="bottom-approaching right-exit"/>
    </vehicle>
    <vehicle id="L4-CV-198" type="L4-CV-Left-" depart="488.28">
        <route edges="left-long-approaching left-short-approaching top-exit"/>
    </vehicle>
    <vehicle id="L4-CV-200" type="L4-CV-" depart="492.00">
        <route edges="top-approaching right-exit"/>
    </vehicle>
    <vehicle id="L4-CV-201" type="L4-CV-" depart="493.86">
        <route edges="top-approaching left-exit-blockage left-exit"/>
    </vehicle>
    <vehicle id="L4-CV-202" type="L4-CV-" depart="495.72">
        <route edges="bottom-approaching top-exit"/>
    </vehicle>
    <vehicle id="L4-CV-203" type="L4-CV-" depart="497.58">
        <route edges="bottom-approaching top-exit"/>
    </vehicle>
    <vehicle id="L4-CV-204" type="L4-CV-Right-" depart="499.44">
        <route edges="left-long-approaching left-short-approaching bottom-exit"/>
    </vehicle>
    <vehicle id="L4-CV-206" type="L4-CV-" depart="503.16">
        <route edges="left-long-approaching left-short-approaching right-exit"/>
    </vehicle>
    <vehicle id="L4-CV-207" type="L4-CV-" depart="505.02">
        <route edges="bottom-approaching top-exit"/>
    </vehicle>
    <vehicle id="L4-CV-208" type="L4-CV-Left-" depart="506.88">
        <route edges="left-long-approaching left-short-approaching top-exit"/>
    </vehicle>
    <vehicle id="L4-CV-209" type="L4-CV-" depart="508.74">
        <route edges="bottom-approaching right-exit"/>
    </vehicle>
    <vehicle id="L4-CV-211" type="L4-CV-" depart="512.46">
        <route edges="bottom-approaching right-exit"/>
    </vehicle>
    <vehicle id="L4-CV-212" type="L4-CV-" depart="514.32">
        <route edges="top-approaching bottom-exit"/>
    </vehicle>
    <vehicle id="L4-CV-213" type="L4-CV-Right-" depart="516.18">
        <route edges="left-long-approaching left-short-approaching bottom-exit"/>
    </vehicle>
    <vehicle id="L4-CV-215" type="L4-CV-" depart="519.90">
        <route edges="right-approaching left-exit-blockage left-exit"/>
    </vehicle>
    <vehicle id="L4-CV-217" type="L4-CV-" depart="523.62">
        <route edges="right-approaching top-exit"/>
    </vehicle>
    <vehicle id="L4-CV-220" type="L4-CV-" depart="529.20">
        <route edges="right-approaching left-exit-blockage left-exit"/>
    </vehicle>
    <vehicle id="L4-CV-221" type="L4-CV-" depart="531.06">
        <route edges="right-approaching top-exit"/>
    </vehicle>
    <vehicle id="L4-CV-222" type="L4-CV-Left-" depart="532.92">
        <route edges="left-long-approaching left-short-approaching top-exit"/>
    </vehicle>
    <vehicle id="L4-CV-223" type="L4-CV-" depart="534.78">
        <route edges="right-approaching bottom-exit"/>
    </vehicle>
    <vehicle id="L4-CV-225" type="L4-CV-" depart="538.50">
        <route edges="right-approaching bottom-exit"/>
    </vehicle>
    <vehicle id="L4-CV-227" type="L4-CV-" depart="542.22">
        <route edges="right-approaching bottom-exit"/>
    </vehicle>
    <vehicle id="L4-CV-229" type="L4-CV-" depart="545.94">
        <route edges="bottom-approaching left-exit-blockage left-exit"/>
    </vehicle>
    <vehicle id="L4-CV-232" type="L4-CV-" depart="551.52">
        <route edges="top-approaching bottom-exit"/>
    </vehicle>
    <vehicle id="L4-CV-234" type="L4-CV-" depart="555.24">
        <route edges="bottom-approaching top-exit"/>
    </vehicle>
    <vehicle id="L4-CV-235" type="L4-CV-Right-" depart="557.10">
        <route edges="left-long-approaching left-short-approaching bottom-exit"/>
    </vehicle>
    <vehicle id="L4-CV-236" type="L4-CV-" depart="558.96">
        <route edges="bottom-approaching top-exit"/>
    </vehicle>
    <vehicle id="L4-CV-237" type="L4-CV-" depart="560.82">
        <route edges="bottom-approaching left-exit-blockage left-exit"/>
    </vehicle>
    <vehicle id="L4-CV-238" type="L4-CV-" depart="562.68">
        <route edges="right-approaching left-exit-blockage left-exit"/>
    </vehicle>
    <vehicle id="L4-CV-239" type="L4-CV-" depart="564.54">
        <route edges="right-approaching bottom-exit"/>
    </vehicle>
    <vehicle id="L4-CV-240" type="L4-CV-" depart="566.40">
        <route edges="left-long-approaching left-short-approaching right-exit"/>
    </vehicle>
    <vehicle id="L4-CV-244" type="L4-CV-" depart="573.84">
        <route edges="right-approaching top-exit"/>
    </vehicle>
    <vehicle id="L4-CV-245" type="L4-CV-" depart="575.70">
        <route edges="right-approaching left-exit-blockage left-exit"/>
    </vehicle>
    <vehicle id="L4-CV-246" type="L4-CV-" depart="577.56">
        <route edges="top-approaching left-exit-blockage left-exit"/>
    </vehicle>
    <vehicle id="L4-CV-248" type="L4-CV-" depart="581.28">
        <route edges="top-approaching right-exit"/>
    </vehicle>
    <vehicle id="L4-CV-249" type="L4-CV-" depart="583.14">
        <route edges="top-approaching bottom-exit"/>
    </vehicle>
    <vehicle id="L4-CV-251" type="L4-CV-" depart="586.86">
        <route edges="left-long-approaching left-short-approaching right-exit"/>
    </vehicle>
    <vehicle id="L4-CV-252" type="L4-CV-Right-" depart="588.72">
        <route edges="left-long-approaching left-short-approaching bottom-exit"/>
    </vehicle>
    <vehicle id="L4-CV-253" type="L4-CV-" depart="590.58">
        <route edges="bottom-approaching left-exit-blockage left-exit"/>
    </vehicle>
    <vehicle id="L4-CV-254" type="L4-CV-" depart="592.44">
        <route edges="right-approaching bottom-exit"/>
    </vehicle>
    <vehicle id="L4-CV-256" type="L4-CV-" depart="596.16">
        <route edges="top-approaching left-exit-blockage left-exit"/>
    </vehicle>
    <vehicle id="L4-CV-257" type="L4-CV-" depart="598.02">
        <route edges="left-long-approaching left-short-approaching right-exit"/>
    </vehicle>
    <vehicle id="L4-CV-258" type="L4-CV-" depart="599.88">
        <route edges="top-approaching right-exit"/>
    </vehicle>
    <vehicle id="L4-CV-259" type="L4-CV-" depart="601.74">
        <route edges="right-approaching left-exit-blockage left-exit"/>
    </vehicle>
    <vehicle id="L4-CV-260" type="L4-CV-" depart="603.60">
        <route edges="left-long-approaching left-short-approaching right-exit"/>
    </vehicle>
    <vehicle id="L4-CV-261" type="L4-CV-" depart="605.46">
        <route edges="top-approaching bottom-exit"/>
    </vehicle>
    <vehicle id="L4-CV-263" type="L4-CV-Left-" depart="609.18">
        <route edges="left-long-approaching left-short-approaching top-exit"/>
    </vehicle>
    <vehicle id="L4-CV-264" type="L4-CV-" depart="611.04">
        <route edges="bottom-approaching top-exit"/>
    </vehicle>
    <vehicle id="L4-CV-265" type="L4-CV-" depart="612.90">
        <route edges="right-approaching top-exit"/>
    </vehicle>
    <vehicle id="L4-CV-266" type="L4-CV-" depart="614.76">
        <route edges="top-approaching bottom-exit"/>
    </vehicle>
    <vehicle id="L4-CV-267" type="L4-CV-" depart="616.62">
        <route edges="top-approaching bottom-exit"/>
    </vehicle>
    <vehicle id="L4-CV-268" type="L4-CV-" depart="618.48">
        <route edges="bottom-approaching left-exit-blockage left-exit"/>
    </vehicle>
    <vehicle id="L4-CV-269" type="L4-CV-Right-" depart="620.34">
        <route edges="left-long-approaching left-short-approaching bottom-exit"/>
    </vehicle>
    <vehicle id="L4-CV-276" type="L4-CV-" depart="633.36">
        <route edges="right-approaching bottom-exit"/>