<?xml version="1.0" ?><!-- generated on 04/08/21 02:25:20 by Eclipse SUMO duarouter Version 1.8.0
<configuration xmlns:xsi="http://www.w3.org/2001/XMLSchema-instance" xsi:noNamespaceSchemaLocation="http://sumo.dlr.de/xsd/duarouterConfiguration.xsd">

    <input>
        <net-file value="Collision/CollisionIntersection.net.xml"/>
        <route-files value="trips.trips.xml"/>
    </input>

    <output>
        <output-file value="Collision/RealTMSCAV/Route-Files/L4-CV-Route.rou.xml"/>
        <alternatives-output value="Collision/RealTMSCAV/Route-Files/L4-CV-Route.rou.alt.xml"/>
    </output>

    <time>
        <begin value="120"/>
        <end value="3600"/>
    </time>

    <report>
        <no-warnings value="true"/>
        <ignore-errors value="true"/>
        <no-step-log value="true"/>
    </report>

</configuration>
--><routes xmlns:xsi="http://www.w3.org/2001/XMLSchema-instance" xsi:noNamespaceSchemaLocation="http://sumo.dlr.de/xsd/routes_file.xsd">
    <vehicle id="L4-CV-2" type="L4-CV-" depart="122.14">
        <route edges="right-approaching top-exit"/>
    </vehicle>
    <vehicle id="L4-CV-3" type="L4-CV-" depart="123.21">
        <route edges="bottom-approaching left-exit-blockage left-exit"/>
    </vehicle>
    <vehicle id="L4-CV-4" type="L4-CV-" depart="124.28">
        <route edges="top-approaching right-exit"/>
    </vehicle>
    <vehicle id="L4-CV-5" type="L4-CV-" depart="125.35">
        <route edges="top-approaching bottom-exit"/>
    </vehicle>
    <vehicle id="L4-CV-9" type="L4-CV-Left-" depart="129.63">
        <route edges="left-long-approaching left-short-approaching top-exit"/>
    </vehicle>
    <vehicle id="L4-CV-10" type="L4-CV-" depart="130.70">
        <route edges="top-approaching bottom-exit"/>
    </vehicle>
    <vehicle id="L4-CV-11" type="L4-CV-" depart="131.77">
        <route edges="top-approaching bottom-exit"/>
    </vehicle>
    <vehicle id="L4-CV-12" type="L4-CV-" depart="132.84">
        <route edges="right-approaching bottom-exit"/>
    </vehicle>
    <vehicle id="L4-CV-13" type="L4-CV-" depart="133.91">
        <route edges="bottom-approaching top-exit"/>
    </vehicle>
    <vehicle id="L4-CV-16" type="L4-CV-Left-" depart="137.12">
        <route edges="left-long-approaching left-short-approaching top-exit"/>
    </vehicle>
    <vehicle id="L4-CV-18" type="L4-CV-" depart="139.26">
        <route edges="bottom-approaching top-exit"/>
    </vehicle>
    <vehicle id="L4-CV-19" type="L4-CV-" depart="140.33">
        <route edges="right-approaching top-exit"/>
    </vehicle>
    <vehicle id="L4-CV-20" type="L4-CV-" depart="141.40">
        <route edges="top-approaching left-exit-blockage left-exit"/>
    </vehicle>
    <vehicle id="L4-CV-21" type="L4-CV-Right-" depart="142.47">
        <route edges="left-long-approaching left-short-approaching bottom-exit"/>
    </vehicle>
    <vehicle id="L4-CV-23" type="L4-CV-" depart="144.61">
        <route edges="left-long-approaching left-short-approaching right-exit"/>
    </vehicle>
    <vehicle id="L4-CV-24" type="L4-CV-" depart="145.68">
        <route edges="bottom-approaching right-exit"/>
    </vehicle>
    <vehicle id="L4-CV-26" type="L4-CV-" depart="147.82">
        <route edges="top-approaching left-exit-blockage left-exit"/>
    </vehicle>
    <vehicle id="L4-CV-27" type="L4-CV-Right-" depart="148.89">
        <route edges="left-long-approaching left-short-approaching bottom-exit"/>
    </vehicle>
    <vehicle id="L4-CV-28" type="L4-CV-" depart="149.96">
        <route edges="right-approaching bottom-exit"/>
    </vehicle>
    <vehicle id="L4-CV-29" type="L4-CV-" depart="151.03">
        <route edges="top-approaching bottom-exit"/>
    </vehicle>
    <vehicle id="L4-CV-30" type="L4-CV-" depart="152.10">
        <route edges="right-approaching top-exit"/>
    </vehicle>
    <vehicle id="L4-CV-31" type="L4-CV-" depart="153.17">
        <route edges="bottom-approaching top-exit"/>
    </vehicle>
    <vehicle id="L4-CV-32" type="L4-CV-" depart="154.24">
        <route edges="left-long-approaching left-short-approaching right-exit"/>
    </vehicle>
    <vehicle id="L4-CV-34" type="L4-CV-" depart="156.38">
        <route edges="bottom-approaching top-exit"/>
    </vehicle>
    <vehicle id="L4-CV-35" type="L4-CV-" depart="157.45">
        <route edges="bottom-approaching right-exit"/>
    </vehicle>
    <vehicle id="L4-CV-38" type="L4-CV-" depart="160.66">
        <route edges="right-approaching top-exit"/>
    </vehicle>
    <vehicle id="L4-CV-39" type="L4-CV-" depart="161.73">
        <route edges="bottom-approaching right-exit"/>
    </vehicle>
    <vehicle id="L4-CV-41" type="L4-CV-" depart="163.87">
        <route edges="bottom-approaching top-exit"/>
    </vehicle>
    <vehicle id="L4-CV-42" type="L4-CV-" depart="164.94">
        <route edges="bottom-approaching left-exit-blockage left-exit"/>
    </vehicle>
    <vehicle id="L4-CV-43" type="L4-CV-" depart="166.01">
        <route edges="right-approaching top-exit"/>
    </vehicle>
    <vehicle id="L4-CV-44" type="L4-CV-Left-" depart="167.08">
        <route edges="left-long-approaching left-short-approaching top-exit"/>
    </vehicle>
    <vehicle id="L4-CV-45" type="L4-CV-" depart="168.15">
        <route edges="right-approaching left-exit-blockage left-exit"/>
    </vehicle>
    <vehicle id="L4-CV-46" type="L4-CV-Right-" depart="169.22">
        <route edges="left-long-approaching left-short-approaching bottom-exit"/>
    </vehicle>
    <vehicle id="L4-CV-48" type="L4-CV-" depart="171.36">
        <route edges="right-approaching top-exit"/>
    </vehicle>
    <vehicle id="L4-CV-50" type="L4-CV-" depart="173.50">
        <route edges="top-approaching right-exit"/>
    </vehicle>
    <vehicle id="L4-CV-51" type="L4-CV-Right-" depart="174.57">
        <route edges="left-long-approaching left-short-approaching bottom-exit"/>
    </vehicle>
    <vehicle id="L4-CV-52" type="L4-CV-" depart="175.64">
        <route edges="right-approaching top-exit"/>
    </vehicle>
    <vehicle id="L4-CV-54" type="L4-CV-" depart="177.78">
        <route edges="bottom-approaching top-exit"/>
    </vehicle>
    <vehicle id="L4-CV-56" type="L4-CV-" depart="179.92">
        <route edges="top-approaching bottom-exit"/>
    </vehicle>
    <vehicle id="L4-CV-57" type="L4-CV-" depart="180.99">
        <route edges="right-approaching top-exit"/>
    </vehicle>
    <vehicle id="L4-CV-58" type="L4-CV-" depart="182.06">
        <route edges="right-approaching top-exit"/>
    </vehicle>
    <vehicle id="L4-CV-59" type="L4-CV-" depart="183.13">
        <route edges="bottom-approaching left-exit-blockage left-exit"/>
    </vehicle>
    <vehicle id="L4-CV-60" type="L4-CV-" depart="184.20">
        <route edges="bottom-approaching top-exit"/>
    </vehicle>
    <vehicle id="L4-CV-63" type="L4-CV-" depart="187.41">
        <route edges="top-approaching left-exit-blockage left-exit"/>
    </vehicle>
    <vehicle id="L4-CV-64" type="L4-CV-" depart="188.48">
        <route edges="left-long-approaching left-short-approaching right-exit"/>
    </vehicle>
    <vehicle id="L4-CV-66" type="L4-CV-Right-" depart="190.62">
        <route edges="left-long-approaching left-short-approaching bottom-exit"/>
    </vehicle>
    <vehicle id="L4-CV-67" type="L4-CV-Left-" depart="191.69">
        <route edges="left-long-approaching left-short-approaching top-exit"/>
    </vehicle>
    <vehicle id="L4-CV-68" type="L4-CV-" depart="192.76">
        <route edges="top-approaching right-exit"/>
    </vehicle>
    <vehicle id="L4-CV-70" type="L4-CV-" depart="194.90">
        <route edges="bottom-approaching left-exit-blockage left-exit"/>
    </vehicle>
    <vehicle id="L4-CV-72" type="L4-CV-Left-" depart="197.04">
        <route edges="left-long-approaching left-short-approaching top-exit"/>
    </vehicle>
    <vehicle id="L4-CV-73" type="L4-CV-" depart="198.11">
        <route edges="top-approaching right-exit"/>
    </vehicle>
    <vehicle id="L4-CV-74" type="L4-CV-" depart="199.18">
        <route edges="right-approaching top-exit"/>
    </vehicle>
    <vehicle id="L4-CV-75" type="L4-CV-" depart="200.25">
        <route edges="left-long-approaching left-short-approaching right-exit"/>
    </vehicle>
    <vehicle id="L4-CV-76" type="L4-CV-Right-" depart="201.32">
        <route edges="left-long-approaching left-short-approaching bottom-exit"/>
    </vehicle>
    <vehicle id="L4-CV-77" type="L4-CV-" depart="202.39">
        <route edges="top-approaching right-exit"/>
    </vehicle>
    <vehicle id="L4-CV-78" type="L4-CV-Left-" depart="203.46">
        <route edges="left-long-approaching left-short-approaching top-exit"/>
    </vehicle>
    <vehicle id="L4-CV-80" type="L4-CV-" depart="205.60">
        <route edges="bottom-approaching right-exit"/>
    </vehicle>
    <vehicle id="L4-CV-82" type="L4-CV-Left-" depart="207.74">
        <route edges="left-long-approaching left-short-approaching top-exit"/>
    </vehicle>
    <vehicle id="L4-CV-83" type="L4-CV-" depart="208.81">
        <route edges="right-approaching top-exit"/>
    </vehicle>
    <vehicle id="L4-CV-84" type="L4-CV-" depart="209.88">
        <route edges="left-long-approaching left-short-approaching right-exit"/>
    </vehicle>
    <vehicle id="L4-CV-85" type="L4-CV-" depart="210.95">
        <route edges="right-approaching top-exit"/>
    </vehicle>
    <vehicle id="L4-CV-86" type="L4-CV-Left-" depart="212.02">
        <route edges="left-long-approaching left-short-approaching top-exit"/>
    </vehicle>
    <vehicle id="L4-CV-87" type="L4-CV-" depart="213.09">
        <route edges="top-approaching right-exit"/>
    </vehicle>
    <vehicle id="L4-CV-89" type="L4-CV-" depart="215.23">
        <route edges="left-long-approaching left-short-approaching right-exit"/>
    </vehicle>
    <vehicle id="L4-CV-90" type="L4-CV-" depart="216.30">
        <route edges="bottom-approaching top-exit"/>
    </vehicle>
    <vehicle id="L4-CV-91" type="L4-CV-" depart="217.37">
        <route edges="top-approaching left-exit-blockage left-exit"/>
    </vehicle>
    <vehicle id="L4-CV-93" type="L4-CV-" depart="219.51">
        <route edges="right-approaching bottom-exit"/>
    </vehicle>
    <vehicle id="L4-CV-94" type="L4-CV-" depart="220.58">
        <route edges="top-approaching right-exit"/>
    </vehicle>
    <vehicle id="L4-CV-95" type="L4-CV-" depart="221.65">
        <route edges="right-approaching left-exit-blockage left-exit"/>
    </vehicle>
    <vehicle id="L4-CV-96" type="L4-CV-" depart="222.72">
        <route edges="right-approaching top-exit"/>
    </vehicle>
    <vehicle id="L4-CV-99" type="L4-CV-" depart="225.93">
        <route edges="left-long-approaching left-short-approaching right-exit"/>
    </vehicle>
    <vehicle id="L4-CV-100" type="L4-CV-" depart="227.00">
        <route edges="bottom-approaching right-exit"/>
    </vehicle>
    <vehicle id="L4-CV-101" type="L4-CV-" depart="228.07">
        <route edges="right-approaching bottom-exit"/>
    </vehicle>
    <vehicle id="L4-CV-102" type="L4-CV-Right-" depart="229.14">
        <route edges="left-long-approaching left-short-approaching bottom-exit"/>
    </vehicle>
    <vehicle id="L4-CV-104" type="L4-CV-Right-" depart="231.28">
        <route edges="left-long-approaching left-short-approaching bottom-exit"/>
    </vehicle>
    <vehicle id="L4-CV-108" type="L4-CV-" depart="235.56">
        <route edges="bottom-approaching top-exit"/>
    </vehicle>
    <vehicle id="L4-CV-109" type="L4-CV-" depart="236.63">
        <route edges="bottom-approaching left-exit-blockage left-exit"/>
    </vehicle>
    <vehicle id="L4-CV-111" type="L4-CV-" depart="238.77">
        <route edges="bottom-approaching top-exit"/>
    </vehicle>
    <vehicle id="L4-CV-112" type="L4-CV-Right-" depart="239.84">
        <route edges="left-long-approaching left-short-approaching bottom-exit"/>
    </vehicle>
    <vehicle id="L4-CV-113" type="L4-CV-" depart="240.91">
        <route edges="right-approaching bottom-exit"/>
    </vehicle>
    <vehicle id="L4-CV-114" type="L4-CV-" depart="241.98">
        <route edges="right-approaching left-exit-blockage left-exit"/>
    </vehicle>
    <vehicle id="L4-CV-115" type="L4-CV-" depart="243.05">
        <route edges="right-approaching top-exit"/>
    </vehicle>
    <vehicle id="L4-CV-116" type="L4-CV-" depart="244.12">
        <route edges="top-approaching left-exit-blockage left-exit"/>
    </vehicle>
    <vehicle id="L4-CV-117" type="L4-CV-" depart="245.19">
        <route edges="top-approaching right-exit"/>
    </vehicle>
    <vehicle id="L4-CV-118" type="L4-CV-Right-" depart="246.26">
        <route edges="left-long-approaching left-short-approaching bottom-exit"/>
    </vehicle>
    <vehicle id="L4-CV-121" type="L4-CV-" depart="249.47">
        <route edges="right-approaching left-exit-blockage left-exit"/>
    </vehicle>
    <vehicle id="L4-CV-122" type="L4-CV-" depart="250.54">
        <route edges="top-approaching bottom-exit"/>
    </vehicle>
    <vehicle id="L4-CV-123" type="L4-CV-" depart="251.61">
        <route edges="bottom-approaching right-exit"/>
    </vehicle>
    <vehicle id="L4-CV-124" type="L4-CV-" depart="252.68">
        <route edges="right-approaching bottom-exit"/>
    </vehicle>
    <vehicle id="L4-CV-125" type="L4-CV-" depart="253.75">
        <route edges="right-approaching top-exit"/>
    </vehicle>
    <vehicle id="L4-CV-127" type="L4-CV-" depart="255.89">
        <route edges="bottom-approaching left-exit-blockage left-exit"/>
    </vehicle>
    <vehicle id="L4-CV-128" type="L4-CV-" depart="256.96">
        <route edges="top-approaching left-exit-blockage left-exit"/>
    </vehicle>
    <vehicle id="L4-CV-130" type="L4-CV-" depart="259.10">
        <route edges="right-approaching left-exit-blockage left-exit"/>
    </vehicle>
    <vehicle id="L4-CV-135" type="L4-CV-" depart="264.45">
        <route edges="bottom-approaching right-exit"/>
    </vehicle>
    <vehicle id="L4-CV-138" type="L4-CV-" depart="267.66">
        <route edges="bottom-approaching right-exit"/>
    </vehicle>
    <vehicle id="L4-CV-140" type="L4-CV-" depart="269.80">
        <route edges="top-approaching left-exit-blockage left-exit"/>
    </vehicle>
    <vehicle id="L4-CV-142" type="L4-CV-" depart="271.94">
        <route edges="top-approaching left-exit-blockage left-exit"/>
    </vehicle>
    <vehicle id="L4-CV-143" type="L4-CV-" depart="273.01">
        <route edges="right-approaching left-exit-blockage left-exit"/>
    </vehicle>
    <vehicle id="L4-CV-145" type="L4-CV-" depart="275.15">
        <route edges="right-approaching bottom-exit"/>
    </vehicle>
    <vehicle id="L4-CV-146" type="L4-CV-" depart="276.22">
        <route edges="top-approaching left-exit-blockage left-exit"/>
    </vehicle>
    <vehicle id="L4-CV-147" type="L4-CV-" depart="277.29">
        <route edges="right-approaching left-exit-blockage left-exit"/>
    </vehicle>
    <vehicle id="L4-CV-148" type="L4-CV-" depart="278.36">
        <route edges="left-long-approaching left-short-approaching right-exit"/>
    </vehicle>
    <vehicle id="L4-CV-151" type="L4-CV-" depart="281.57">
        <route edges="bottom-approaching left-exit-blockage left-exit"/>
    </vehicle>
    <vehicle id="L4-CV-152" type="L4-CV-Left-" depart="282.64">
        <route edges="left-long-approaching left-short-approaching top-exit"/>
    </vehicle>
    <vehicle id="L4-CV-153" type="L4-CV-" depart="283.71">
        <route edges="top-approaching right-exit"/>
    </vehicle>
    <vehicle id="L4-CV-154" type="L4-CV-" depart="284.78">
        <route edges="bottom-approaching top-exit"/>
    </vehicle>
    <vehicle id="L4-CV-155" type="L4-CV-" depart="285.85">
        <route edges="left-long-approaching left-short-approaching right-exit"/>
    </vehicle>
    <vehicle id="L4-CV-157" type="L4-CV-Left-" depart="287.99">
        <route edges="left-long-approaching left-short-approaching top-exit"/>
    </vehicle>
    <vehicle id="L4-CV-159" type="L4-CV-" depart="290.13">
        <route edges="top-approaching bottom-exit"/>
    </vehicle>
    <vehicle id="L4-CV-160" type="L4-CV-Left-" depart="291.20">
        <route edges="left-long-approaching left-short-approaching top-exit"/>
    </vehicle>
    <vehicle id="L4-CV-161" type="L4-CV-" depart="292.27">
        <route edges="bottom-approaching top-exit"/>
    </vehicle>
    <vehicle id="L4-CV-162" type="L4-CV-" depart="293.34">
        <route edges="right-approaching left-exit-blockage left-exit"/>
    </vehicle>
    <vehicle id="L4-CV-163" type="L4-CV-Left-" depart="294.41">
        <route edges="left-long-approaching left-short-approaching top-exit"/>
    </vehicle>
    <vehicle id="L4-CV-164" type="L4-CV-" depart="295.48">
        <route edges="top-approaching bottom-exit"/>
    </vehicle>
    <vehicle id="L4-CV-165" type="L4-CV-" depart="296.55">
        <route edges="left-long-approaching left-short-approaching right-exit"/>
    </vehicle>
    <vehicle id="L4-CV-167" type="L4-CV-" depart="298.69">
        <route edges="bottom-approaching right-exit"/>
    </vehicle>
    <vehicle id="L4-CV-168" type="L4-CV-" depart="299.76">
        <route edges="top-approaching bottom-exit"/>
    </vehicle>
    <vehicle id="L4-CV-169" type="L4-CV-" depart="300.83">
        <route edges="bottom-approaching top-exit"/>
    </vehicle>
    <vehicle id="L4-CV-170" type="L4-CV-" depart="301.90">
        <route edges="top-approaching right-exit"/>
    </vehicle>
    <vehicle id="L4-CV-171" type="L4-CV-" depart="302.97">
        <route edges="bottom-approaching right-exit"/>
    </vehicle>
    <vehicle id="L4-CV-173" type="L4-CV-" depart="305.11">
        <route edges="right-approaching bottom-exit"/>
    </vehicle>
    <vehicle id="L4-CV-174" type="L4-CV-" depart="306.18">
        <route edges="top-approaching bottom-exit"/>
    </vehicle>
    <vehicle id="L4-CV-175" type="L4-CV-" depart="307.25">
        <route edges="right-approaching top-exit"/>
    </vehicle>
    <vehicle id="L4-CV-176" type="L4-CV-" depart="308.32">
        <route edges="right-approaching bottom-exit"/>
    </vehicle>
    <vehicle id="L4-CV-177" type="L4-CV-Left-" depart="309.39">
        <route edges="left-long-approaching left-short-approaching top-exit"/>
    </vehicle>
    <vehicle id="L4-CV-178" type="L4-CV-" depart="310.46">
        <route edges="bottom-approaching right-exit"/>
    </vehicle>
    <vehicle id="L4-CV-179" type="L4-CV-Right-" depart="311.53">
        <route edges="left-long-approaching left-short-approaching bottom-exit"/>
    </vehicle>
    <vehicle id="L4-CV-180" type="L4-CV-" depart="312.60">
        <route edges="right-approaching bottom-exit"/>
    </vehicle>
    <vehicle id="L4-CV-181" type="L4-CV-" depart="313.67">
        <route edges="bottom-approaching left-exit-blockage left-exit"/>
    </vehicle>
    <vehicle id="L4-CV-184" type="L4-CV-" depart="316.88">
        <route edges="top-approaching bottom-exit"/>
    </vehicle>
    <vehicle id="L4-CV-187" type="L4-CV-" depart="320.09">
        <route edges="top-approaching left-exit-blockage left-exit"/>
    </vehicle>
    <vehicle id="L4-CV-188" type="L4-CV-" depart="321.16">
        <route edges="bottom-approaching right-exit"/>
    </vehicle>
    <vehicle id="L4-CV-189" type="L4-CV-" depart="322.23">
        <route edges="bottom-approaching right-exit"/>
    </vehicle>
    <vehicle id="L4-CV-190" type="L4-CV-Left-" depart="323.30">
        <route edges="left-long-approaching left-short-approaching top-exit"/>
    </vehicle>
    <vehicle id="L4-CV-194" type="L4-CV-Right-" depart="327.58">
        <route edges="left-long-approaching left-short-approaching bottom-exit"/>
    </vehicle>
    <vehicle id="L4-CV-195" type="L4-CV-" depart="328.65">
        <route edges="bottom-approaching left-exit-blockage left-exit"/>
    </vehicle>
    <vehicle id="L4-CV-196" type="L4-CV-" depart="329.72">
        <route edges="right-approaching bottom-exit"/>
    </vehicle>
    <vehicle id="L4-CV-198" type="L4-CV-" depart="331.86">
        <route edges="bottom-approaching right-exit"/>
    </vehicle>
    <vehicle id="L4-CV-200" type="L4-CV-" depart="334.00">
        <route edges="right-approaching bottom-exit"/>
    </vehicle>
    <vehicle id="L4-CV-201" type="L4-CV-" depart="335.07">
        <route edges="top-approaching left-exit-blockage left-exit"/>
    </vehicle>
    <vehicle id="L4-CV-202" type="L4-CV-Left-" depart="336.14">
        <route edges="left-long-approaching left-short-approaching top-exit"/>
    </vehicle>
    <vehicle id="L4-CV-203" type="L4-CV-" depart="337.21">
        <route edges="bottom-approaching right-exit"/>
    </vehicle>
    <vehicle id="L4-CV-205" type="L4-CV-" depart="339.35">
        <route edges="top-approaching right-exit"/>
    </vehicle>
    <vehicle id="L4-CV-207" type="L4-CV-" depart="341.49">
        <route edges="top-approaching right-exit"/>
    </vehicle>
    <vehicle id="L4-CV-208" type="L4-CV-" depart="342.56">
        <route edges="top-approaching bottom-exit"/>
    </vehicle>
    <vehicle id="L4-CV-209" type="L4-CV-" depart="343.63">
        <route edges="right-approaching left-exit-blockage left-exit"/>
    </vehicle>
    <vehicle id="L4-CV-210" type="L4-CV-" depart="344.70">
        <route edges="bottom-approaching left-exit-blockage left-exit"/>
    </vehicle>
    <vehicle id="L4-CV-211" type="L4-CV-" depart="345.77">
        <route edges="right-approaching left-exit-blockage left-exit"/>
    </vehicle>
    <vehicle id="L4-CV-212" type="L4-CV-Right-" depart="346.84">
        <route edges="left-long-approaching left-short-approaching bottom-exit"/>
    </vehicle>
    <vehicle id="L4-CV-213" type="L4-CV-" depart="347.91">
        <route edges="top-approaching right-exit"/>
    </vehicle>
    <vehicle id="L4-CV-214" type="L4-CV-" depart="348.98">
        <route edges="top-approaching left-exit-blockage left-exit"/>
    </vehicle>
    <vehicle id="L4-CV-217" type="L4-CV-" depart="352.19">
        <route edges="right-approaching left-exit-blockage left-exit"/>
    </vehicle>
    <vehicle id="L4-CV-220" type="L4-CV-" depart="355.40">
        <route edges="top-approaching left-exit-blockage left-exit"/>
    </vehicle>
    <vehicle id="L4-CV-221" type="L4-CV-" depart="356.47">
        <route edges="top-approaching bottom-exit"/>
    </vehicle>
    <vehicle id="L4-CV-222" type="L4-CV-Left-" depart="357.54">
        <route edges="left-long-approaching left-short-approaching top-exit"/>
    </vehicle>
    <vehicle id="L4-CV-223" type="L4-CV-" depart="358.61">
        <route edges="right-approaching left-exit-blockage left-exit"/>
    </vehicle>
    <vehicle id="L4-CV-224" type="L4-CV-Right-" depart="359.68">
        <route edges="left-long-approaching left-short-approaching bottom-exit"/>
    </vehicle>
    <vehicle id="L4-CV-227" type="L4-CV-" depart="362.89">
        <route edges="top-approaching bottom-exit"/>
    </vehicle>
    <vehicle id="L4-CV-228" type="L4-CV-" depart="363.96">
        <route edges="top-approaching left-exit-blockage left-exit"/>
    </vehicle>
    <vehicle id="L4-CV-229" type="L4-CV-" depart="365.03">
        <route edges="bottom-approaching left-exit-blockage left-exit"/>
    </vehicle>
    <vehicle id="L4-CV-231" type="L4-CV-" depart="367.17">
        <route edges="bottom-approaching top-exit"/>
    </vehicle>
    <vehicle id="L4-CV-232" type="L4-CV-Left-" depart="368.24">
        <route edges="left-long-approaching left-short-approaching top-exit"/>
    </vehicle>
    <vehicle id="L4-CV-234" type="L4-CV-Left-" depart="370.38">
        <route edges="left-long-approaching left-short-approaching top-exit"/>
    </vehicle>
    <vehicle id="L4-CV-235" type="L4-CV-" depart="371.45">
        <route edges="bottom-approaching right-exit"/>
    </vehicle>
    <vehicle id="L4-CV-236" type="L4-CV-" depart="372.52">
        <route edges="left-long-approaching left-short-approaching right-exit"/>
    </vehicle>
    <vehicle id="L4-CV-237" type="L4-CV-" depart="373.59">
        <route edges="right-approaching bottom-exit"/>
    </vehicle>
    <vehicle id="L4-CV-240" type="L4-CV-Left-" depart="376.80">
        <route edges="left-long-approaching left-short-approaching top-exit"/>
    </vehicle>
    <vehicle id="L4-CV-245" type="L4-CV-" depart="382.15">
        <route edges="right-approaching top-exit"/>
    </vehicle>
    <vehicle id="L4-CV-246" type="L4-CV-" depart="383.22">
        <route edges="right-approaching left-exit-blockage left-exit"/>
    </vehicle>
    <vehicle id="L4-CV-247" type="L4-CV-" depart="384.29">
        <route edges="top-approaching bottom-exit"/>
    </vehicle>
    <vehicle id="L4-CV-248" type="L4-CV-" depart="385.36">
        <route edges="bottom-approaching top-exit"/>
    </vehicle>
    <vehicle id="L4-CV-249" type="L4-CV-Right-" depart="386.43">
        <route edges="left-long-approaching left-short-approaching bottom-exit"/>
    </vehicle>
    <vehicle id="L4-CV-250" type="L4-CV-" depart="387.50">
        <route edges="right-approaching top-exit"/>
    </vehicle>
    <vehicle id="L4-CV-251" type="L4-CV-" depart="388.57">
        <route edges="right-approaching left-exit-blockage left-exit"/>
    </vehicle>
    <vehicle id="L4-CV-254" type="L4-CV-" depart="391.78">
        <route edges="top-approaching bottom-exit"/>
    </vehicle>
    <vehicle id="L4-CV-256" type="L4-CV-Right-" depart="393.92">
        <route edges="left-long-approaching left-short-approaching bottom-exit"/>
    </vehicle>
    <vehicle id="L4-CV-257" type="L4-CV-" depart="394.99">
        <route edges="right-approaching left-exit-blockage left-exit"/>
    </vehicle>
    <vehicle id="L4-CV-258" type="L4-CV-Right-" depart="396.06">
        <route edges="left-long-approaching left-short-approaching bottom-exit"/>
    </vehicle>
    <vehicle id="L4-CV-259" type="L4-CV-" depart="397.13">
        <route edges="bottom-approaching top-exit"/>
    </vehicle>
    <vehicle id="L4-CV-261" type="L4-CV-" depart="399.27">
        <route edges="left-long-approaching left-short-approaching right-exit"/>
    </vehicle>
    <vehicle id="L4-CV-262" type="L4-CV-" depart="400.34">
        <route edges="bottom-approaching left-exit-blockage left-exit"/>
    </vehicle>
    <vehicle id="L4-CV-263" type="L4-CV-" depart="401.41">
        <route edges="bottom-approaching right-exit"/>
    </vehicle>
    <vehicle id="L4-CV-264" type="L4-CV-" depart="402.48">
        <route edges="top-approaching right-exit"/>
    </vehicle>
    <vehicle id="L4-CV-265" type="L4-CV-" depart="403.55">
        <route edges="top-approaching bottom-exit"/>
    </vehicle>
    <vehicle id="L4-CV-266" type="L4-CV-" depart="404.62">
        <route edges="bottom-approaching right-exit"/>
    </vehicle>
    <vehicle id="L4-CV-267" type="L4-CV-" depart="405.69">
        <route edges="left-long-approaching left-short-approaching right-exit"/>
    </vehicle>
    <vehicle id="L4-CV-268" type="L4-CV-" depart="406.76">
        <route edges="left-long-approaching left-short-approaching right-exit"/>
    </vehicle>
    <vehicle id="L4-CV-269" type="L4-CV-" depart="407.83">
        <route edges="right-approaching top-exit"/>
    </vehicle>
    <vehicle id="L4-CV-271" type="L4-CV-" depart="409.97">
        <route edges="top-approaching bottom-exit"/>
    </vehicle>
    <vehicle id="L4-CV-272" type="L4-CV-" depart="411.04">
        <route edges="bottom-approaching left-exit-blockage left-exit"/>
    </vehicle>
    <vehicle id="L4-CV-273" type="L4-CV-" depart="412.11">
        <route edges="bottom-approaching top-exit"/>
    </vehicle>
    <vehicle id="L4-CV-274" type="L4-CV-" depart="413.18">
        <route edges="top-approaching left-exit-blockage left-exit"/>
    </vehicle>
    <vehicle id="L4-CV-277" type="L4-CV-" depart="416.39">
        <route edges="left-long-approaching left-short-approaching right-exit"/>
    </vehicle>
    <vehicle id="L4-CV-279" type="L4-CV-" depart="418.53">
        <route edges="right-approaching bottom-exit"/>
    </vehicle>
    <vehicle id="L4-CV-280" type="L4-CV-" depart="419.60">
        <route edges="bottom-approaching left-exit-blockage left-exit"/>
    </vehicle>
    <vehicle id="L4-CV-281" type="L4-CV-Right-" depart="420.67">
        <route edges="left-long-approaching left-short-approaching bottom-exit"/>
    </vehicle>
    <vehicle id="L4-CV-284" type="L4-CV-" depart="423.88">
        <route edges="top-approaching right-exit"/>
    </vehicle>
    <vehicle id="L4-CV-285" type="L4-CV-" depart="424.95">
        <route edges="top-approaching right-exit"/>
    </vehicle>
    <vehicle id="L4-CV-286" type="L4-CV-Left-" depart="426.02">
        <route edges="left-long-approaching left-short-approaching top-exit"/>
    </vehicle>
    <vehicle id="L4-CV-287" type="L4-CV-" depart="427.09">
        <route edges="right-approaching top-exit"/>
    </vehicle>
    <vehicle id="L4-CV-290" type="L4-CV-Right-" depart="430.30">
        <route edges="left-long-approaching left-short-approaching bottom-exit"/>
    </vehicle>
    <vehicle id="L4-CV-293" type="L4-CV-Right-" depart="433.51">
        <route edges="left-long-approaching left-short-approaching bottom-exit"/>
    </vehicle>
    <vehicle id="L4-CV-294" type="L4-CV-" depart="434.58">
        <route edges="top-approaching right-exit"/>
    </vehicle>
    <vehicle id="L4-CV-296" type="L4-CV-" depart="436.72">
        <route edges="bottom-approaching left-exit-blockage left-exit"/>
    </vehicle>
    <vehicle id="L4-CV-298" type="L4-CV-" depart="438.86">
        <route edges="right-approaching bottom-exit"/>
    </vehicle>
    <vehicle id="L4-CV-300" type="L4-CV-Right-" depart="441.00">
        <route edges="left-long-approaching left-short-approaching bottom-exit"/>
    </vehicle>
    <vehicle id="L4-CV-301" type="L4-CV-" depart="442.07">
        <route edges="right-approaching top-exit"/>
    </vehicle>
    <vehicle id="L4-CV-302" type="L4-CV-" depart="443.14">
        <route edges="right-approaching bottom-exit"/>
    </vehicle>