<configuration>
    <input>
        <net-file value="../RoadworksIntersection.net.xml"/>
        <route-files value="Route-Files/L4-CV-Route.rou.xml, Route-Files/L4-AV-Route.rou.xml, Route-Files/L2-CV-Route.rou.xml, Route-Files/L2-AV-Route.rou.xml,
        Route-Files/L0-HDV-Route.rou.xml"/>
        <additional-files value="Additional-Files/Roadworks-RealTMS-Penetration1-Detectors.add.xml, Additional-Files/Roadworks-RealTMS-Penetration1-Rerouters.add.xml, 
        ../Additional-Files/Roadworks-Traffic-lights.add.xml, ../Additional-Files/Roadworks-Traffic-Signs.add.xml, PreparingVehicleModels/Vehicle-Models/L4-CV.add.xml, PreparingVehicleModels/Vehicle-Models/L4-CV-Left.add.xml, PreparingVehicleModels/Vehicle-Models/L4-CV-Right.add.xml, 
        PreparingVehicleModels/Vehicle-Models/L4-AV.add.xml, PreparingVehicleModels/Vehicle-Models/L4-AV-Left.add.xml, PreparingVehicleModels/Vehicle-Models/L4-AV-Right.add.xml,
        PreparingVehicleModels/Vehicle-Models/L2-CV.add.xml, PreparingVehicleModels/Vehicle-Models/L2-CV-Left.add.xml, PreparingVehicleModels/Vehicle-Models/L2-CV-Right.add.xml,
        PreparingVehicleModels/Vehicle-Models/L2-AV.add.xml, PreparingVehicleModels/Vehicle-Models/L2-AV-Left.add.xml, PreparingVehicleModels/Vehicle-Models/L2-AV-Right.add.xml,
        PreparingVehicleModels/Vehicle-Models/L0-HDV.add.xml, PreparingVehicleModels/Vehicle-Models/L0-HDV-Left.add.xml, PreparingVehicleModels/Vehicle-Models/L0-HDV-Straight.add.xml"/>    
    </input>
    <time>
        <begin value="0" />
        <step-length value="0.1" /> 
    </time>
    <processing>
        <default.action-step-length value="0.1"/>
    </processing>
</configuration>