<additional xmlns:xsi="http://www.w3.org/2001/XMLSchema-instance" xsi:noNamespaceSchemaLocation="http://sumo.dlr.de/xsd/additional_file.xsd">
    
    
    
    
    
    
    <vTypeDistribution id="L0-HDV">
        <vType id="L0-HDV0" sigma="0.323" tau="1.227" decel="3.362" accel="1.024" emergencyDecel="9.000" lcAssertive="1.228" actionStepLength="0.100" speedFactor="0.866" vClass="passenger" carFollowModel="Krauss" color="green">
            <param key="has.toc.device" value="false"/>
        </vType>
        <vType id="L0-HDV1" sigma="0.038" tau="1.191" decel="3.035" accel="3.481" emergencyDecel="9.000" lcAssertive="1.273" actionStepLength="0.100" speedFactor="1.174" vClass="passenger" carFollowModel="Krauss" color="green">
            <param key="has.toc.device" value="false"/>
        </vType>
        <vType id="L0-HDV2" sigma="0.383" tau="0.925" decel="2.569" accel="2.310" emergencyDecel="9.000" lcAssertive="1.178" actionStepLength="0.100" speedFactor="1.188" vClass="passenger" carFollowModel="Krauss" color="green">
            <param key="has.toc.device" value="false"/>
        </vType>
        <vType id="L0-HDV3" sigma="0.857" tau="0.671" decel="3.279" accel="2.867" emergencyDecel="9.000" lcAssertive="1.139" actionStepLength="0.100" speedFactor="0.877" vClass="passenger" carFollowModel="Krauss" color="green">
            <param key="has.toc.device" value="false"/>
        </vType>
        <vType id="L0-HDV4" sigma="0.638" tau="0.601" decel="2.542" accel="2.221" emergencyDecel="9.000" lcAssertive="1.249" actionStepLength="0.100" speedFactor="1.030" vClass="passenger" carFollowModel="Krauss" color="green">
            <param key="has.toc.device" value="false"/>
        </vType>
        <vType id="L0-HDV5" sigma="0.462" tau="0.553" decel="3.333" accel="2.250" emergencyDecel="9.000" lcAssertive="1.163" actionStepLength="0.100" speedFactor="1.056" vClass="passenger" carFollowModel="Krauss" color="green">
            <param key="has.toc.device" value="false"/>
        </vType>
        <vType id="L0-HDV6" sigma="0.091" tau="0.926" decel="2.285" accel="1.754" emergencyDecel="9.000" lcAssertive="1.260" actionStepLength="0.100" speedFactor="1.049" vClass="passenger" carFollowModel="Krauss" color="green">
            <param key="has.toc.device" value="false"/>
        </vType>
        <vType id="L0-HDV7" sigma="0.613" tau="0.507" decel="2.796" accel="2.091" emergencyDecel="9.000" lcAssertive="1.236" actionStepLength="0.100" speedFactor="1.094" vClass="passenger" carFollowModel="Krauss" color="green">
            <param key="has.toc.device" value="false"/>
        </vType>
        <vType id="L0-HDV8" sigma="0.110" tau="0.533" decel="3.840" accel="1.158" emergencyDecel="9.000" lcAssertive="1.214" actionStepLength="0.100" speedFactor="1.107" vClass="passenger" carFollowModel="Krauss" color="green">
            <param key="has.toc.device" value="false"/>
        </vType>
        <vType id="L0-HDV9" sigma="0.451" tau="1.044" decel="3.926" accel="1.667" emergencyDecel="9.000" lcAssertive="1.230" actionStepLength="0.100" speedFactor="0.952" vClass="passenger" carFollowModel="Krauss" color="green">
            <param key="has.toc.device" value="false"/>
        </vType>
    </vTypeDistribution>
    
    
    



</additional>
