<additional xmlns:xsi="http://www.w3.org/2001/XMLSchema-instance" xsi:noNamespaceSchemaLocation="http://sumo.dlr.de/xsd/additional_file.xsd">
    
    
    
    
    <vTypeDistribution id="L2-CV">
        <vType id="L2-CV0" tau="0.600" decel="3.245" accel="1.003" emergencyDecel="9.000" lcAssertive="1.213" actionStepLength="0.100" vClass="passenger" carFollowModel="CACC" color="yellow">
            <param key="has.toc.device" value="true"/>
            <param key="device.toc.manualType" value="L0-HDV"/>
            <param key="device.toc.automatedType" value="L2-CV"/>
            <param key="device.toc.reponseTime" value="1.500"/>
            <param key="device.toc.initialAwareness" value="0.672"/>
            <param key="device.toc.recoveryRate" value="0.102"/>
            <param key="device.toc.tauCACCtoACC" value="1.613"/>
            <param key="device.toc.mrmDecel" value="3.000"/>
            <param key="device.toc.useColorScheme" value="true"/>
        </vType>
        <vType id="L2-CV1" tau="0.600" decel="2.675" accel="1.035" emergencyDecel="9.000" lcAssertive="1.224" actionStepLength="0.100" vClass="passenger" carFollowModel="CACC" color="yellow">
            <param key="has.toc.device" value="true"/>
            <param key="device.toc.manualType" value="L0-HDV"/>
            <param key="device.toc.automatedType" value="L2-CV"/>
            <param key="device.toc.reponseTime" value="1.500"/>
            <param key="device.toc.initialAwareness" value="0.994"/>
            <param key="device.toc.recoveryRate" value="0.237"/>
            <param key="device.toc.tauCACCtoACC" value="1.369"/>
            <param key="device.toc.mrmDecel" value="3.000"/>
            <param key="device.toc.useColorScheme" value="true"/>
        </vType>
        <vType id="L2-CV2" tau="0.600" decel="2.060" accel="1.866" emergencyDecel="9.000" lcAssertive="1.136" actionStepLength="0.100" vClass="passenger" carFollowModel="CACC" color="yellow">
            <param key="has.toc.device" value="true"/>
            <param key="device.toc.manualType" value="L0-HDV"/>
            <param key="device.toc.automatedType" value="L2-CV"/>
            <param key="device.toc.reponseTime" value="1.500"/>
            <param key="device.toc.initialAwareness" value="0.830"/>
            <param key="device.toc.recoveryRate" value="0.107"/>
            <param key="device.toc.tauCACCtoACC" value="1.562"/>
            <param key="device.toc.mrmDecel" value="3.000"/>
            <param key="device.toc.useColorScheme" value="true"/>
        </vType>
        <vType id="L2-CV3" tau="0.600" decel="2.568" accel="1.941" emergencyDecel="9.000" lcAssertive="1.216" actionStepLength="0.100" vClass="passenger" carFollowModel="CACC" color="yellow">
            <param key="has.toc.device" value="true"/>
            <param key="device.toc.manualType" value="L0-HDV"/>
            <param key="device.toc.automatedType" value="L2-CV"/>
            <param key="device.toc.reponseTime" value="1.500"/>
            <param key="device.toc.initialAwareness" value="0.593"/>
            <param key="device.toc.recoveryRate" value="0.214"/>
            <param key="device.toc.tauCACCtoACC" value="1.784"/>
            <param key="device.toc.mrmDecel" value="3.000"/>
            <param key="device.toc.useColorScheme" value="true"/>
        </vType>
        <vType id="L2-CV4" tau="0.600" decel="2.779" accel="1.501" emergencyDecel="9.000" lcAssertive="1.102" actionStepLength="0.100" vClass="passenger" carFollowModel="CACC" color="yellow">
            <param key="has.toc.device" value="true"/>
            <param key="device.toc.manualType" value="L0-HDV"/>
            <param key="device.toc.automatedType" value="L2-CV"/>
            <param key="device.toc.reponseTime" value="1.500"/>
            <param key="device.toc.initialAwareness" value="0.744"/>
            <param key="device.toc.recoveryRate" value="0.298"/>
            <param key="device.toc.tauCACCtoACC" value="1.704"/>
            <param key="device.toc.mrmDecel" value="3.000"/>
            <param key="device.toc.useColorScheme" value="true"/>
        </vType>
        <vType id="L2-CV5" tau="0.600" decel="2.649" accel="1.406" emergencyDecel="9.000" lcAssertive="1.142" actionStepLength="0.100" vClass="passenger" carFollowModel="CACC" color="yellow">
            <param key="has.toc.device" value="true"/>
            <param key="device.toc.manualType" value="L0-HDV"/>
            <param key="device.toc.automatedType" value="L2-CV"/>
            <param key="device.toc.reponseTime" value="1.500"/>
            <param key="device.toc.initialAwareness" value="0.750"/>
            <param key="device.toc.recoveryRate" value="0.126"/>
            <param key="device.toc.tauCACCtoACC" value="1.456"/>
            <param key="device.toc.mrmDecel" value="3.000"/>
            <param key="device.toc.useColorScheme" value="true"/>
        </vType>
        <vType id="L2-CV6" tau="0.600" decel="2.161" accel="0.825" emergencyDecel="9.000" lcAssertive="1.120" actionStepLength="0.100" vClass="passenger" carFollowModel="CACC" color="yellow">
            <param key="has.toc.device" value="true"/>
            <param key="device.toc.manualType" value="L0-HDV"/>
            <param key="device.toc.automatedType" value="L2-CV"/>
            <param key="device.toc.reponseTime" value="1.500"/>
            <param key="device.toc.initialAwareness" value="0.301"/>
            <param key="device.toc.recoveryRate" value="0.064"/>
            <param key="device.toc.tauCACCtoACC" value="1.387"/>
            <param key="device.toc.mrmDecel" value="3.000"/>
            <param key="device.toc.useColorScheme" value="true"/>
        </vType>
        <vType id="L2-CV7" tau="0.600" decel="2.782" accel="1.254" emergencyDecel="9.000" lcAssertive="1.210" actionStepLength="0.100" vClass="passenger" carFollowModel="CACC" color="yellow">
            <param key="has.toc.device" value="true"/>
            <param key="device.toc.manualType" value="L0-HDV"/>
            <param key="device.toc.automatedType" value="L2-CV"/>
            <param key="device.toc.reponseTime" value="1.500"/>
            <param key="device.toc.initialAwareness" value="0.649"/>
            <param key="device.toc.recoveryRate" value="0.283"/>
            <param key="device.toc.tauCACCtoACC" value="1.307"/>
            <param key="device.toc.mrmDecel" value="3.000"/>
            <param key="device.toc.useColorScheme" value="true"/>
        </vType>
        <vType id="L2-CV8" tau="0.600" decel="2.814" accel="0.796" emergencyDecel="9.000" lcAssertive="1.155" actionStepLength="0.100" vClass="passenger" carFollowModel="CACC" color="yellow">
            <param key="has.toc.device" value="true"/>
            <param key="device.toc.manualType" value="L0-HDV"/>
            <param key="device.toc.automatedType" value="L2-CV"/>
            <param key="device.toc.reponseTime" value="1.500"/>
            <param key="device.toc.initialAwareness" value="0.844"/>
            <param key="device.toc.recoveryRate" value="0.197"/>
            <param key="device.toc.tauCACCtoACC" value="1.464"/>
            <param key="device.toc.mrmDecel" value="3.000"/>
            <param key="device.toc.useColorScheme" value="true"/>
        </vType>
        <vType id="L2-CV9" tau="0.600" decel="2.866" accel="1.840" emergencyDecel="9.000" lcAssertive="1.108" actionStepLength="0.100" vClass="passenger" carFollowModel="CACC" color="yellow">
            <param key="has.toc.device" value="true"/>
            <param key="device.toc.manualType" value="L0-HDV"/>
            <param key="device.toc.automatedType" value="L2-CV"/>
            <param key="device.toc.reponseTime" value="1.500"/>
            <param key="device.toc.initialAwareness" value="0.757"/>
            <param key="device.toc.recoveryRate" value="0.017"/>
            <param key="device.toc.tauCACCtoACC" value="1.507"/>
            <param key="device.toc.mrmDecel" value="3.000"/>
            <param key="device.toc.useColorScheme" value="true"/>
        </vType>
    </vTypeDistribution>
    
    
    



</additional>
