<additional xmlns:xsi="http://www.w3.org/2001/XMLSchema-instance" xsi:noNamespaceSchemaLocation="http://sumo.dlr.de/xsd/additional_file.xsd">
    
    
    
    
    
    
    
    
    <vTypeDistribution id="L2-CV">
        <vType id="L2-CV0" vClass="custom1" carFollowModel="CACC" color="yellow" tau="0.600" decel="3.245" accel="1.003" emergencyDecel="9.000" lcAssertive="1.213" actionStepLength="0.100">
            <param key="has.toc.device" value="true"/>
            <param key="device.toc.manualType" value="L0-HDV"/>
            <param key="device.toc.automatedType" value="L2-CV"/>
            <param key="device.toc.reponseTime" value="1.500"/>
            <param key="device.toc.initialAwareness" value="0.672"/>
            <param key="device.toc.recoveryRate" value="0.102"/>
            <param key="device.toc.tauCACCtoACC" value="1.613"/>
            <param key="device.toc.mrmDecel" value="3.000"/>
            <param key="device.toc.useColorScheme" value="true"/>
        </vType>
        <vType id="L2-CV1" vClass="custom1" carFollowModel="CACC" color="yellow" tau="0.600" decel="2.675" accel="1.035" emergencyDecel="9.000" lcAssertive="1.224" actionStepLength="0.100">
            <param key="has.toc.device" value="true"/>
            <param key="device.toc.manualType" value="L0-HDV"/>
            <param key="device.toc.automatedType" value="L2-CV"/>
            <param key="device.toc.reponseTime" value="1.500"/>
            <param key="device.toc.initialAwareness" value="0.994"/>
            <param key="device.toc.recoveryRate" value="0.237"/>
            <param key="device.toc.tauCACCtoACC" value="1.369"/>
            <param key="device.toc.mrmDecel" value="3.000"/>
            <param key="device.toc.useColorScheme" value="true"/>
        </vType>
        <vType id="L2-CV2" vClass="custom1" carFollowModel="CACC" color="yellow" tau="0.600" decel="2.060" accel="1.866" emergencyDecel="9.000" lcAssertive="1.136" actionStepLength="0.100">
            <param key="has.toc.device" value="true"/>
            <param key="device.toc.manualType" value="L0-HDV"/>
            <param key="device.toc.automatedType" value="L2-CV"/>
            <param key="device.toc.reponseTime" value="1.500"/>
            <param key="device.toc.initialAwareness" value="0.830"/>
            <param key="device.toc.recoveryRate" value="0.107"/>
            <param key="device.toc.tauCACCtoACC" value="1.562"/>
            <param key="device.toc.mrmDecel" value="3.000"/>
            <param key="device.toc.useColorScheme" value="true"/>
        </vType>
        <vType id="L2-CV3" vClass="custom1" carFollowModel="CACC" color="yellow" tau="0.600" decel="2.568" accel="1.941" emergencyDecel="9.000" lcAssertive="1.216" actionStepLength="0.100">
            <param key="has.toc.device" value="true"/>
            <param key="device.toc.manualType" value="L0-HDV"/>
            <param key="device.toc.automatedType" value="L2-CV"/>
            <param key="device.toc.reponseTime" value="1.500"/>
            <param key="device.toc.initialAwareness" value="0.593"/>
            <param key="device.toc.recoveryRate" value="0.214"/>
            <param key="device.toc.tauCACCtoACC" value="1.784"/>
            <param key="device.toc.mrmDecel" value="3.000"/>
            <param key="device.toc.useColorScheme" value="true"/>
        </vType>
        <vType id="L2-CV4" vClass="custom1" carFollowModel="CACC" color="yellow" tau="0.600" decel="2.779" accel="1.501" emergencyDecel="9.000" lcAssertive="1.102" actionStepLength="0.100">
            <param key="has.toc.device" value="true"/>
            <param key="device.toc.manualType" value="L0-HDV"/>
            <param key="device.toc.automatedType" value="L2-CV"/>
            <param key="device.toc.reponseTime" value="1.500"/>
            <param key="device.toc.initialAwareness" value="0.744"/>
            <param key="device.toc.recoveryRate" value="0.298"/>
            <param key="device.toc.tauCACCtoACC" value="1.704"/>
            <param key="device.toc.mrmDecel" value="3.000"/>
            <param key="device.toc.useColorScheme" value="true"/>
        </vType>
        <vType id="L2-CV5" vClass="custom1" carFollowModel="CACC" color="yellow" tau="0.600" decel="2.649" accel="1.406" emergencyDecel="9.000" lcAssertive="1.142" actionStepLength="0.100">
            <param key="has.toc.device" value="true"/>
            <param key="device.toc.manualType" value="L0-HDV"/>
            <param key="device.toc.automatedType" value="L2-CV"/>
            <param key="device.toc.reponseTime" value="1.500"/>
            <param key="device.toc.initialAwareness" value="0.750"/>
            <param key="device.toc.recoveryRate" value="0.126"/>
            <param key="device.toc.tauCACCtoACC" value="1.456"/>
            <param key="device.toc.mrmDecel" value="3.000"/>
            <param key="device.toc.useColorScheme" value="true"/>
        </vType>
        <vType id="L2-CV6" vClass="custom1" carFollowModel="CACC" color="yellow" tau="0.600" decel="2.161" accel="0.825" emergencyDecel="9.000" lcAssertive="1.120" actionStepLength="0.100">
            <param key="has.toc.device" value="true"/>
            <param key="device.toc.manualType" value="L0-HDV"/>
            <param key="device.toc.automatedType" value="L2-CV"/>
            <param key="device.toc.reponseTime" value="1.500"/>
            <param key="device.toc.initialAwareness" value="0.301"/>
            <param key="device.toc.recoveryRate" value="0.064"/>
            <param key="device.toc.tauCACCtoACC" value="1.387"/>
            <param key="device.toc.mrmDecel" value="3.000"/>
            <param key="device.toc.useColorScheme" value="true"/>
        </vType>
        <vType id="L2-CV7" vClass="custom1" carFollowModel="CACC" color="yellow" tau="0.600" decel="2.782" accel="1.254" emergencyDecel="9.000" lcAssertive="1.210" actionStepLength="0.100">
            <param key="has.toc.device" value="true"/>
            <param key="device.toc.manualType" value="L0-HDV"/>
            <param key="device.toc.automatedType" value="L2-CV"/>
            <param key="device.toc.reponseTime" value="1.500"/>
            <param key="device.toc.initialAwareness" value="0.649"/>
            <param key="device.toc.recoveryRate" value="0.283"/>
            <param key="device.toc.tauCACCtoACC" value="1.307"/>
            <param key="device.toc.mrmDecel" value="3.000"/>
            <param key="device.toc.useColorScheme" value="true"/>
        </vType>
        <vType id="L2-CV8" vClass="custom1" carFollowModel="CACC" color="yellow" tau="0.600" decel="2.814" accel="0.796" emergencyDecel="9.000" lcAssertive="1.155" actionStepLength="0.100">
            <param key="has.toc.device" value="true"/>
            <param key="device.toc.manualType" value="L0-HDV"/>
            <param key="device.toc.automatedType" value="L2-CV"/>
            <param key="device.toc.reponseTime" value="1.500"/>
            <param key="device.toc.initialAwareness" value="0.844"/>
            <param key="device.toc.recoveryRate" value="0.197"/>
            <param key="device.toc.tauCACCtoACC" value="1.464"/>
            <param key="device.toc.mrmDecel" value="3.000"/>
            <param key="device.toc.useColorScheme" value="true"/>
        </vType>
        <vType id="L2-CV9" vClass="custom1" carFollowModel="CACC" color="yellow" tau="0.600" decel="2.866" accel="1.840" emergencyDecel="9.000" lcAssertive="1.108" actionStepLength="0.100">
            <param key="has.toc.device" value="true"/>
            <param key="device.toc.manualType" value="L0-HDV"/>
            <param key="device.toc.automatedType" value="L2-CV"/>
            <param key="device.toc.reponseTime" value="1.500"/>
            <param key="device.toc.initialAwareness" value="0.757"/>
            <param key="device.toc.recoveryRate" value="0.017"/>
            <param key="device.toc.tauCACCtoACC" value="1.507"/>
            <param key="device.toc.mrmDecel" value="3.000"/>
            <param key="device.toc.useColorScheme" value="true"/>
        </vType>
        <vType id="L2-CV10" vClass="custom1" carFollowModel="CACC" color="yellow" tau="0.600" decel="2.115" accel="0.984" emergencyDecel="9.000" lcAssertive="1.194" actionStepLength="0.100">
            <param key="has.toc.device" value="true"/>
            <param key="device.toc.manualType" value="L0-HDV"/>
            <param key="device.toc.automatedType" value="L2-CV"/>
            <param key="device.toc.reponseTime" value="1.500"/>
            <param key="device.toc.initialAwareness" value="0.785"/>
            <param key="device.toc.recoveryRate" value="0.167"/>
            <param key="device.toc.tauCACCtoACC" value="1.620"/>
            <param key="device.toc.mrmDecel" value="3.000"/>
            <param key="device.toc.useColorScheme" value="true"/>
        </vType>
        <vType id="L2-CV11" vClass="custom1" carFollowModel="CACC" color="yellow" tau="0.600" decel="2.258" accel="1.921" emergencyDecel="9.000" lcAssertive="1.103" actionStepLength="0.100">
            <param key="has.toc.device" value="true"/>
            <param key="device.toc.manualType" value="L0-HDV"/>
            <param key="device.toc.automatedType" value="L2-CV"/>
            <param key="device.toc.reponseTime" value="1.500"/>
            <param key="device.toc.initialAwareness" value="0.647"/>
            <param key="device.toc.recoveryRate" value="0.393"/>
            <param key="device.toc.tauCACCtoACC" value="1.655"/>
            <param key="device.toc.mrmDecel" value="3.000"/>
            <param key="device.toc.useColorScheme" value="true"/>
        </vType>
        <vType id="L2-CV12" vClass="custom1" carFollowModel="CACC" color="yellow" tau="0.600" decel="2.012" accel="1.969" emergencyDecel="9.000" lcAssertive="1.166" actionStepLength="0.100">
            <param key="has.toc.device" value="true"/>
            <param key="device.toc.manualType" value="L0-HDV"/>
            <param key="device.toc.automatedType" value="L2-CV"/>
            <param key="device.toc.reponseTime" value="1.500"/>
            <param key="device.toc.initialAwareness" value="0.658"/>
            <param key="device.toc.recoveryRate" value="0.182"/>
            <param key="device.toc.tauCACCtoACC" value="1.564"/>
            <param key="device.toc.mrmDecel" value="3.000"/>
            <param key="device.toc.useColorScheme" value="true"/>
        </vType>
        <vType id="L2-CV13" vClass="custom1" carFollowModel="CACC" color="yellow" tau="0.600" decel="3.923" accel="1.375" emergencyDecel="9.000" lcAssertive="1.226" actionStepLength="0.100">
            <param key="has.toc.device" value="true"/>
            <param key="device.toc.manualType" value="L0-HDV"/>
            <param key="device.toc.automatedType" value="L2-CV"/>
            <param key="device.toc.reponseTime" value="1.500"/>
            <param key="device.toc.initialAwareness" value="0.975"/>
            <param key="device.toc.recoveryRate" value="0.131"/>
            <param key="device.toc.tauCACCtoACC" value="1.673"/>
            <param key="device.toc.mrmDecel" value="3.000"/>
            <param key="device.toc.useColorScheme" value="true"/>
        </vType>
        <vType id="L2-CV14" vClass="custom1" carFollowModel="CACC" color="yellow" tau="0.600" decel="2.521" accel="1.077" emergencyDecel="9.000" lcAssertive="1.186" actionStepLength="0.100">
            <param key="has.toc.device" value="true"/>
            <param key="device.toc.manualType" value="L0-HDV"/>
            <param key="device.toc.automatedType" value="L2-CV"/>
            <param key="device.toc.reponseTime" value="1.500"/>
            <param key="device.toc.initialAwareness" value="0.811"/>
            <param key="device.toc.recoveryRate" value="0.190"/>
            <param key="device.toc.tauCACCtoACC" value="1.631"/>
            <param key="device.toc.mrmDecel" value="3.000"/>
            <param key="device.toc.useColorScheme" value="true"/>
        </vType>
        <vType id="L2-CV15" vClass="custom1" carFollowModel="CACC" color="yellow" tau="0.600" decel="3.404" accel="1.873" emergencyDecel="9.000" lcAssertive="1.127" actionStepLength="0.100">
            <param key="has.toc.device" value="true"/>
            <param key="device.toc.manualType" value="L0-HDV"/>
            <param key="device.toc.automatedType" value="L2-CV"/>
            <param key="device.toc.reponseTime" value="1.500"/>
            <param key="device.toc.initialAwareness" value="0.411"/>
            <param key="device.toc.recoveryRate" value="0.224"/>
            <param key="device.toc.tauCACCtoACC" value="1.752"/>
            <param key="device.toc.mrmDecel" value="3.000"/>
            <param key="device.toc.useColorScheme" value="true"/>
        </vType>
        <vType id="L2-CV16" vClass="custom1" carFollowModel="CACC" color="yellow" tau="0.600" decel="2.750" accel="1.921" emergencyDecel="9.000" lcAssertive="1.177" actionStepLength="0.100">
            <param key="has.toc.device" value="true"/>
            <param key="device.toc.manualType" value="L0-HDV"/>
            <param key="device.toc.automatedType" value="L2-CV"/>
            <param key="device.toc.reponseTime" value="1.500"/>
            <param key="device.toc.initialAwareness" value="0.589"/>
            <param key="device.toc.recoveryRate" value="0.176"/>
            <param key="device.toc.tauCACCtoACC" value="1.279"/>
            <param key="device.toc.mrmDecel" value="3.000"/>
            <param key="device.toc.useColorScheme" value="true"/>
        </vType>
        <vType id="L2-CV17" vClass="custom1" carFollowModel="CACC" color="yellow" tau="0.600" decel="2.245" accel="1.214" emergencyDecel="9.000" lcAssertive="1.175" actionStepLength="0.100">
            <param key="has.toc.device" value="true"/>
            <param key="device.toc.manualType" value="L0-HDV"/>
            <param key="device.toc.automatedType" value="L2-CV"/>
            <param key="device.toc.reponseTime" value="1.500"/>
            <param key="device.toc.initialAwareness" value="0.675"/>
            <param key="device.toc.recoveryRate" value="0.153"/>
            <param key="device.toc.tauCACCtoACC" value="1.622"/>
            <param key="device.toc.mrmDecel" value="3.000"/>
            <param key="device.toc.useColorScheme" value="true"/>
        </vType>
        <vType id="L2-CV18" vClass="custom1" carFollowModel="CACC" color="yellow" tau="0.600" decel="3.343" accel="1.882" emergencyDecel="9.000" lcAssertive="1.108" actionStepLength="0.100">
            <param key="has.toc.device" value="true"/>
            <param key="device.toc.manualType" value="L0-HDV"/>
            <param key="device.toc.automatedType" value="L2-CV"/>
            <param key="device.toc.reponseTime" value="1.500"/>
            <param key="device.toc.initialAwareness" value="0.621"/>
            <param key="device.toc.recoveryRate" value="0.027"/>
            <param key="device.toc.tauCACCtoACC" value="1.497"/>
            <param key="device.toc.mrmDecel" value="3.000"/>
            <param key="device.toc.useColorScheme" value="true"/>
        </vType>
        <vType id="L2-CV19" vClass="custom1" carFollowModel="CACC" color="yellow" tau="0.600" decel="3.032" accel="1.124" emergencyDecel="9.000" lcAssertive="1.237" actionStepLength="0.100">
            <param key="has.toc.device" value="true"/>
            <param key="device.toc.manualType" value="L0-HDV"/>
            <param key="device.toc.automatedType" value="L2-CV"/>
            <param key="device.toc.reponseTime" value="1.500"/>
            <param key="device.toc.initialAwareness" value="0.852"/>
            <param key="device.toc.recoveryRate" value="0.325"/>
            <param key="device.toc.tauCACCtoACC" value="1.488"/>
            <param key="device.toc.mrmDecel" value="3.000"/>
            <param key="device.toc.useColorScheme" value="true"/>
        </vType>
        <vType id="L2-CV20" vClass="custom1" carFollowModel="CACC" color="yellow" tau="0.600" decel="3.953" accel="1.800" emergencyDecel="9.000" lcAssertive="1.121" actionStepLength="0.100">
            <param key="has.toc.device" value="true"/>
            <param key="device.toc.manualType" value="L0-HDV"/>
            <param key="device.toc.automatedType" value="L2-CV"/>
            <param key="device.toc.reponseTime" value="1.500"/>
            <param key="device.toc.initialAwareness" value="0.716"/>
            <param key="device.toc.recoveryRate" value="0.049"/>
            <param key="device.toc.tauCACCtoACC" value="1.576"/>
            <param key="device.toc.mrmDecel" value="3.000"/>
            <param key="device.toc.useColorScheme" value="true"/>
        </vType>
        <vType id="L2-CV21" vClass="custom1" carFollowModel="CACC" color="yellow" tau="0.600" decel="2.653" accel="1.318" emergencyDecel="9.000" lcAssertive="1.174" actionStepLength="0.100">
            <param key="has.toc.device" value="true"/>
            <param key="device.toc.manualType" value="L0-HDV"/>
            <param key="device.toc.automatedType" value="L2-CV"/>
            <param key="device.toc.reponseTime" value="1.500"/>
            <param key="device.toc.initialAwareness" value="0.494"/>
            <param key="device.toc.recoveryRate" value="0.145"/>
            <param key="device.toc.tauCACCtoACC" value="1.540"/>
            <param key="device.toc.mrmDecel" value="3.000"/>
            <param key="device.toc.useColorScheme" value="true"/>
        </vType>
        <vType id="L2-CV22" vClass="custom1" carFollowModel="CACC" color="yellow" tau="0.600" decel="2.386" accel="1.387" emergencyDecel="9.000" lcAssertive="1.106" actionStepLength="0.100">
            <param key="has.toc.device" value="true"/>
            <param key="device.toc.manualType" value="L0-HDV"/>
            <param key="device.toc.automatedType" value="L2-CV"/>
            <param key="device.toc.reponseTime" value="1.500"/>
            <param key="device.toc.initialAwareness" value="0.661"/>
            <param key="device.toc.recoveryRate" value="0.194"/>
            <param key="device.toc.tauCACCtoACC" value="1.543"/>
            <param key="device.toc.mrmDecel" value="3.000"/>
            <param key="device.toc.useColorScheme" value="true"/>
        </vType>
        <vType id="L2-CV23" vClass="custom1" carFollowModel="CACC" color="yellow" tau="0.600" decel="2.583" accel="0.765" emergencyDecel="9.000" lcAssertive="1.186" actionStepLength="0.100">
            <param key="has.toc.device" value="true"/>
            <param key="device.toc.manualType" value="L0-HDV"/>
            <param key="device.toc.automatedType" value="L2-CV"/>
            <param key="device.toc.reponseTime" value="1.500"/>
            <param key="device.toc.initialAwareness" value="1.214"/>
            <param key="device.toc.recoveryRate" value="0.154"/>
            <param key="device.toc.tauCACCtoACC" value="1.735"/>
            <param key="device.toc.mrmDecel" value="3.000"/>
            <param key="device.toc.useColorScheme" value="true"/>
        </vType>
        <vType id="L2-CV24" vClass="custom1" carFollowModel="CACC" color="yellow" tau="0.600" decel="3.140" accel="1.980" emergencyDecel="9.000" lcAssertive="1.100" actionStepLength="0.100">
            <param key="has.toc.device" value="true"/>
            <param key="device.toc.manualType" value="L0-HDV"/>
            <param key="device.toc.automatedType" value="L2-CV"/>
            <param key="device.toc.reponseTime" value="1.500"/>
            <param key="device.toc.initialAwareness" value="0.961"/>
            <param key="device.toc.recoveryRate" value="0.240"/>
            <param key="device.toc.tauCACCtoACC" value="1.675"/>
            <param key="device.toc.mrmDecel" value="3.000"/>
            <param key="device.toc.useColorScheme" value="true"/>
        </vType>
        <vType id="L2-CV25" vClass="custom1" carFollowModel="CACC" color="yellow" tau="0.600" decel="3.743" accel="1.305" emergencyDecel="9.000" lcAssertive="1.151" actionStepLength="0.100">
            <param key="has.toc.device" value="true"/>
            <param key="device.toc.manualType" value="L0-HDV"/>
            <param key="device.toc.automatedType" value="L2-CV"/>
            <param key="device.toc.reponseTime" value="1.500"/>
            <param key="device.toc.initialAwareness" value="0.972"/>
            <param key="device.toc.recoveryRate" value="0.263"/>
            <param key="device.toc.tauCACCtoACC" value="1.089"/>
            <param key="device.toc.mrmDecel" value="3.000"/>
            <param key="device.toc.useColorScheme" value="true"/>
        </vType>
        <vType id="L2-CV26" vClass="custom1" carFollowModel="CACC" color="yellow" tau="0.600" decel="3.127" accel="1.089" emergencyDecel="9.000" lcAssertive="1.193" actionStepLength="0.100">
            <param key="has.toc.device" value="true"/>
            <param key="device.toc.manualType" value="L0-HDV"/>
            <param key="device.toc.automatedType" value="L2-CV"/>
            <param key="device.toc.reponseTime" value="1.500"/>
            <param key="device.toc.initialAwareness" value="0.669"/>
            <param key="device.toc.recoveryRate" value="0.179"/>
            <param key="device.toc.tauCACCtoACC" value="1.647"/>
            <param key="device.toc.mrmDecel" value="3.000"/>
            <param key="device.toc.useColorScheme" value="true"/>
        </vType>
        <vType id="L2-CV27" vClass="custom1" carFollowModel="CACC" color="yellow" tau="0.600" decel="3.477" accel="1.419" emergencyDecel="9.000" lcAssertive="1.196" actionStepLength="0.100">
            <param key="has.toc.device" value="true"/>
            <param key="device.toc.manualType" value="L0-HDV"/>
            <param key="device.toc.automatedType" value="L2-CV"/>
            <param key="device.toc.reponseTime" value="1.500"/>
            <param key="device.toc.initialAwareness" value="0.685"/>
            <param key="device.toc.recoveryRate" value="0.110"/>
            <param key="device.toc.tauCACCtoACC" value="1.595"/>
            <param key="device.toc.mrmDecel" value="3.000"/>
            <param key="device.toc.useColorScheme" value="true"/>
        </vType>
        <vType id="L2-CV28" vClass="custom1" carFollowModel="CACC" color="yellow" tau="0.600" decel="3.266" accel="1.592" emergencyDecel="9.000" lcAssertive="1.182" actionStepLength="0.100">
            <param key="has.toc.device" value="true"/>
            <param key="device.toc.manualType" value="L0-HDV"/>
            <param key="device.toc.automatedType" value="L2-CV"/>
            <param key="device.toc.reponseTime" value="1.500"/>
            <param key="device.toc.initialAwareness" value="0.795"/>
            <param key="device.toc.recoveryRate" value="0.152"/>
            <param key="device.toc.tauCACCtoACC" value="1.380"/>
            <param key="device.toc.mrmDecel" value="3.000"/>
            <param key="device.toc.useColorScheme" value="true"/>
        </vType>
        <vType id="L2-CV29" vClass="custom1" carFollowModel="CACC" color="yellow" tau="0.600" decel="3.259" accel="0.811" emergencyDecel="9.000" lcAssertive="1.145" actionStepLength="0.100">
            <param key="has.toc.device" value="true"/>
            <param key="device.toc.manualType" value="L0-HDV"/>
            <param key="device.toc.automatedType" value="L2-CV"/>
            <param key="device.toc.reponseTime" value="1.500"/>
            <param key="device.toc.initialAwareness" value="1.044"/>
            <param key="device.toc.recoveryRate" value="0.159"/>
            <param key="device.toc.tauCACCtoACC" value="1.364"/>
            <param key="device.toc.mrmDecel" value="3.000"/>
            <param key="device.toc.useColorScheme" value="true"/>
        </vType>
        <vType id="L2-CV30" vClass="custom1" carFollowModel="CACC" color="yellow" tau="0.600" decel="3.081" accel="1.888" emergencyDecel="9.000" lcAssertive="1.212" actionStepLength="0.100">
            <param key="has.toc.device" value="true"/>
            <param key="device.toc.manualType" value="L0-HDV"/>
            <param key="device.toc.automatedType" value="L2-CV"/>
            <param key="device.toc.reponseTime" value="1.500"/>
            <param key="device.toc.initialAwareness" value="1.000"/>
            <param key="device.toc.recoveryRate" value="0.191"/>
            <param key="device.toc.tauCACCtoACC" value="1.790"/>
            <param key="device.toc.mrmDecel" value="3.000"/>
            <param key="device.toc.useColorScheme" value="true"/>
        </vType>
        <vType id="L2-CV31" vClass="custom1" carFollowModel="CACC" color="yellow" tau="0.600" decel="3.922" accel="1.655" emergencyDecel="9.000" lcAssertive="1.208" actionStepLength="0.100">
            <param key="has.toc.device" value="true"/>
            <param key="device.toc.manualType" value="L0-HDV"/>
            <param key="device.toc.automatedType" value="L2-CV"/>
            <param key="device.toc.reponseTime" value="1.500"/>
            <param key="device.toc.initialAwareness" value="0.829"/>
            <param key="device.toc.recoveryRate" value="0.207"/>
            <param key="device.toc.tauCACCtoACC" value="1.359"/>
            <param key="device.toc.mrmDecel" value="3.000"/>
            <param key="device.toc.useColorScheme" value="true"/>
        </vType>
        <vType id="L2-CV32" vClass="custom1" carFollowModel="CACC" color="yellow" tau="0.600" decel="3.532" accel="0.865" emergencyDecel="9.000" lcAssertive="1.166" actionStepLength="0.100">
            <param key="has.toc.device" value="true"/>
            <param key="device.toc.manualType" value="L0-HDV"/>
            <param key="device.toc.automatedType" value="L2-CV"/>
            <param key="device.toc.reponseTime" value="1.500"/>
            <param key="device.toc.initialAwareness" value="0.745"/>
            <param key="device.toc.recoveryRate" value="0.043"/>
            <param key="device.toc.tauCACCtoACC" value="1.628"/>
            <param key="device.toc.mrmDecel" value="3.000"/>
            <param key="device.toc.useColorScheme" value="true"/>
        </vType>
        <vType id="L2-CV33" vClass="custom1" carFollowModel="CACC" color="yellow" tau="0.600" decel="2.718" accel="1.086" emergencyDecel="9.000" lcAssertive="1.204" actionStepLength="0.100">
            <param key="has.toc.device" value="true"/>
            <param key="device.toc.manualType" value="L0-HDV"/>
            <param key="device.toc.automatedType" value="L2-CV"/>
            <param key="device.toc.reponseTime" value="1.500"/>
            <param key="device.toc.initialAwareness" value="1.004"/>
            <param key="device.toc.recoveryRate" value="0.199"/>
            <param key="device.toc.tauCACCtoACC" value="1.222"/>
            <param key="device.toc.mrmDecel" value="3.000"/>
            <param key="device.toc.useColorScheme" value="true"/>
        </vType>
        <vType id="L2-CV34" vClass="custom1" carFollowModel="CACC" color="yellow" tau="0.600" decel="2.593" accel="1.905" emergencyDecel="9.000" lcAssertive="1.143" actionStepLength="0.100">
            <param key="has.toc.device" value="true"/>
            <param key="device.toc.manualType" value="L0-HDV"/>
            <param key="device.toc.automatedType" value="L2-CV"/>
            <param key="device.toc.reponseTime" value="1.500"/>
            <param key="device.toc.initialAwareness" value="0.874"/>
            <param key="device.toc.recoveryRate" value="0.240"/>
            <param key="device.toc.tauCACCtoACC" value="1.497"/>
            <param key="device.toc.mrmDecel" value="3.000"/>
            <param key="device.toc.useColorScheme" value="true"/>
        </vType>
        <vType id="L2-CV35" vClass="custom1" carFollowModel="CACC" color="yellow" tau="0.600" decel="2.609" accel="1.387" emergencyDecel="9.000" lcAssertive="1.133" actionStepLength="0.100">
            <param key="has.toc.device" value="true"/>
            <param key="device.toc.manualType" value="L0-HDV"/>
            <param key="device.toc.automatedType" value="L2-CV"/>
            <param key="device.toc.reponseTime" value="1.500"/>
            <param key="device.toc.initialAwareness" value="0.725"/>
            <param key="device.toc.recoveryRate" value="0.116"/>
            <param key="device.toc.tauCACCtoACC" value="1.735"/>
            <param key="device.toc.mrmDecel" value="3.000"/>
            <param key="device.toc.useColorScheme" value="true"/>
        </vType>
        <vType id="L2-CV36" vClass="custom1" carFollowModel="CACC" color="yellow" tau="0.600" decel="3.560" accel="1.148" emergencyDecel="9.000" lcAssertive="1.162" actionStepLength="0.100">
            <param key="has.toc.device" value="true"/>
            <param key="device.toc.manualType" value="L0-HDV"/>
            <param key="device.toc.automatedType" value="L2-CV"/>
            <param key="device.toc.reponseTime" value="1.500"/>
            <param key="device.toc.initialAwareness" value="0.439"/>
            <param key="device.toc.recoveryRate" value="0.210"/>
            <param key="device.toc.tauCACCtoACC" value="1.485"/>
            <param key="device.toc.mrmDecel" value="3.000"/>
            <param key="device.toc.useColorScheme" value="true"/>
        </vType>
        <vType id="L2-CV37" vClass="custom1" carFollowModel="CACC" color="yellow" tau="0.600" decel="3.757" accel="1.643" emergencyDecel="9.000" lcAssertive="1.224" actionStepLength="0.100">
            <param key="has.toc.device" value="true"/>
            <param key="device.toc.manualType" value="L0-HDV"/>
            <param key="device.toc.automatedType" value="L2-CV"/>
            <param key="device.toc.reponseTime" value="1.500"/>
            <param key="device.toc.initialAwareness" value="0.334"/>
            <param key="device.toc.recoveryRate" value="0.207"/>
            <param key="device.toc.tauCACCtoACC" value="1.394"/>
            <param key="device.toc.mrmDecel" value="3.000"/>
            <param key="device.toc.useColorScheme" value="true"/>
        </vType>