<additional xmlns:xsi="http://www.w3.org/2001/XMLSchema-instance" xsi:noNamespaceSchemaLocation="http://sumo.dlr.de/xsd/additional_file.xsd">
    
    
    
    
    
    
    
    
    
    
    <vTypeDistribution id="L4-Non-CV">
        <vType id="L4-Non-CV0" tau="0.600" decel="3.245" accel="1.003" emergencyDecel="9.000" lcAssertive="0.875" actionStepLength="0.100" vClass="passenger" carFollowModel="ACC" color="orange">
            <param key="has.toc.device" value="true"/>
            <param key="device.toc.manualType" value="L2-Non-CV"/>
            <param key="device.toc.automatedType" value="L4-Non-CV"/>
            <param key="device.toc.reponseTime" value="5.217"/>
            <param key="device.toc.initialAwareness" value="0.206"/>
            <param key="device.toc.recoveryRate" value="0.307"/>
            <param key="device.toc.tauCACCtoACC" value="1.266"/>
            <param key="device.toc.ogNewTimeHeadway" value="1.600"/>
            <param key="device.toc.ogChangeRate" value="0.800"/>
            <param key="device.toc.mrmDecel" value="3.000"/>
            <param key="device.toc.useColorScheme" value="true"/>
        </vType>
        <vType id="L4-Non-CV1" tau="0.600" decel="2.675" accel="1.035" emergencyDecel="9.000" lcAssertive="0.880" actionStepLength="0.100" vClass="passenger" carFollowModel="ACC" color="orange">
            <param key="has.toc.device" value="true"/>
            <param key="device.toc.manualType" value="L2-Non-CV"/>
            <param key="device.toc.automatedType" value="L4-Non-CV"/>
            <param key="device.toc.reponseTime" value="8.510"/>
            <param key="device.toc.initialAwareness" value="0.542"/>
            <param key="device.toc.recoveryRate" value="0.184"/>
            <param key="device.toc.tauCACCtoACC" value="1.312"/>
            <param key="device.toc.ogNewTimeHeadway" value="1.600"/>
            <param key="device.toc.ogChangeRate" value="0.800"/>
            <param key="device.toc.mrmDecel" value="3.000"/>
            <param key="device.toc.useColorScheme" value="true"/>
        </vType>
        <vType id="L4-Non-CV2" tau="0.600" decel="2.052" accel="1.866" emergencyDecel="9.000" lcAssertive="0.844" actionStepLength="0.100" vClass="passenger" carFollowModel="ACC" color="orange">
            <param key="has.toc.device" value="true"/>
            <param key="device.toc.manualType" value="L2-Non-CV"/>
            <param key="device.toc.automatedType" value="L4-Non-CV"/>
            <param key="device.toc.reponseTime" value="6.832"/>
            <param key="device.toc.initialAwareness" value="0.217"/>
            <param key="device.toc.recoveryRate" value="0.281"/>
            <param key="device.toc.tauCACCtoACC" value="1.414"/>
            <param key="device.toc.ogNewTimeHeadway" value="1.600"/>
            <param key="device.toc.ogChangeRate" value="0.800"/>
            <param key="device.toc.mrmDecel" value="3.000"/>
            <param key="device.toc.useColorScheme" value="true"/>
        </vType>
        <vType id="L4-Non-CV3" tau="0.600" decel="3.942" accel="1.941" emergencyDecel="9.000" lcAssertive="0.876" actionStepLength="0.100" vClass="passenger" carFollowModel="ACC" color="orange">
            <param key="has.toc.device" value="true"/>
            <param key="device.toc.manualType" value="L2-Non-CV"/>
            <param key="device.toc.automatedType" value="L4-Non-CV"/>
            <param key="device.toc.reponseTime" value="4.402"/>
            <param key="device.toc.initialAwareness" value="0.486"/>
            <param key="device.toc.recoveryRate" value="0.392"/>
            <param key="device.toc.tauCACCtoACC" value="1.456"/>
            <param key="device.toc.ogNewTimeHeadway" value="1.600"/>
            <param key="device.toc.ogChangeRate" value="0.800"/>
            <param key="device.toc.mrmDecel" value="3.000"/>
            <param key="device.toc.useColorScheme" value="true"/>
        </vType>
        <vType id="L4-Non-CV4" tau="0.600" decel="3.867" accel="1.501" emergencyDecel="9.000" lcAssertive="0.831" actionStepLength="0.100" vClass="passenger" carFollowModel="ACC" color="orange">
            <param key="has.toc.device" value="true"/>
            <param key="device.toc.manualType" value="L2-Non-CV"/>
            <param key="device.toc.automatedType" value="L4-Non-CV"/>
            <param key="device.toc.reponseTime" value="5.952"/>
            <param key="device.toc.initialAwareness" value="0.694"/>
            <param key="device.toc.recoveryRate" value="0.352"/>
            <param key="device.toc.tauCACCtoACC" value="1.430"/>
            <param key="device.toc.ogNewTimeHeadway" value="1.600"/>
            <param key="device.toc.ogChangeRate" value="0.800"/>
            <param key="device.toc.mrmDecel" value="3.000"/>
            <param key="device.toc.useColorScheme" value="true"/>
        </vType>
        <vType id="L4-Non-CV5" tau="0.600" decel="3.523" accel="1.406" emergencyDecel="9.000" lcAssertive="0.847" actionStepLength="0.100" vClass="passenger" carFollowModel="ACC" color="orange">
            <param key="has.toc.device" value="true"/>
            <param key="device.toc.manualType" value="L2-Non-CV"/>
            <param key="device.toc.automatedType" value="L4-Non-CV"/>
            <param key="device.toc.reponseTime" value="6.012"/>
            <param key="device.toc.initialAwareness" value="0.264"/>
            <param key="device.toc.recoveryRate" value="0.228"/>
            <param key="device.toc.tauCACCtoACC" value="1.332"/>
            <param key="device.toc.ogNewTimeHeadway" value="1.600"/>
            <param key="device.toc.ogChangeRate" value="0.800"/>
            <param key="device.toc.mrmDecel" value="3.000"/>
            <param key="device.toc.useColorScheme" value="true"/>
        </vType>
        <vType id="L4-Non-CV6" tau="0.600" decel="2.325" accel="0.906" emergencyDecel="9.000" lcAssertive="0.810" actionStepLength="0.100" vClass="passenger" carFollowModel="ACC" color="orange">
            <param key="has.toc.device" value="true"/>
            <param key="device.toc.manualType" value="L2-Non-CV"/>
            <param key="device.toc.automatedType" value="L4-Non-CV"/>
            <param key="device.toc.reponseTime" value="2.717"/>
            <param key="device.toc.initialAwareness" value="0.309"/>
            <param key="device.toc.recoveryRate" value="0.424"/>
            <param key="device.toc.tauCACCtoACC" value="1.456"/>
            <param key="device.toc.ogNewTimeHeadway" value="1.600"/>
            <param key="device.toc.ogChangeRate" value="0.800"/>
            <param key="device.toc.mrmDecel" value="3.000"/>
            <param key="device.toc.useColorScheme" value="true"/>
        </vType>
        <vType id="L4-Non-CV7" tau="0.600" decel="3.652" accel="1.254" emergencyDecel="9.000" lcAssertive="0.874" actionStepLength="0.100" vClass="passenger" carFollowModel="ACC" color="orange">
            <param key="has.toc.device" value="true"/>
            <param key="device.toc.manualType" value="L2-Non-CV"/>
            <param key="device.toc.automatedType" value="L4-Non-CV"/>
            <param key="device.toc.reponseTime" value="4.982"/>
            <param key="device.toc.initialAwareness" value="0.656"/>
            <param key="device.toc.recoveryRate" value="0.154"/>
            <param key="device.toc.tauCACCtoACC" value="1.463"/>
            <param key="device.toc.ogNewTimeHeadway" value="1.600"/>
            <param key="device.toc.ogChangeRate" value="0.800"/>
            <param key="device.toc.mrmDecel" value="3.000"/>
            <param key="device.toc.useColorScheme" value="true"/>
        </vType>
        <vType id="L4-Non-CV8" tau="0.600" decel="2.296" accel="1.591" emergencyDecel="9.000" lcAssertive="0.864" actionStepLength="0.100" vClass="passenger" carFollowModel="ACC" color="orange">
            <param key="has.toc.device" value="true"/>
            <param key="device.toc.manualType" value="L2-Non-CV"/>
            <param key="device.toc.automatedType" value="L4-Non-CV"/>
            <param key="device.toc.reponseTime" value="5.436"/>
            <param key="device.toc.initialAwareness" value="0.405"/>
            <param key="device.toc.recoveryRate" value="0.063"/>
            <param key="device.toc.tauCACCtoACC" value="1.473"/>
            <param key="device.toc.ogNewTimeHeadway" value="1.600"/>
            <param key="device.toc.ogChangeRate" value="0.800"/>
            <param key="device.toc.mrmDecel" value="3.000"/>
            <param key="device.toc.useColorScheme" value="true"/>
        </vType>
        <vType id="L4-Non-CV9" tau="0.600" decel="3.340" accel="1.787" emergencyDecel="9.000" lcAssertive="0.813" actionStepLength="0.100" vClass="passenger" carFollowModel="ACC" color="orange">
            <param key="has.toc.device" value="true"/>
            <param key="device.toc.manualType" value="L2-Non-CV"/>
            <param key="device.toc.automatedType" value="L4-Non-CV"/>
            <param key="device.toc.reponseTime" value="5.568"/>
            <param key="device.toc.initialAwareness" value="0.229"/>
            <param key="device.toc.recoveryRate" value="0.300"/>
            <param key="device.toc.tauCACCtoACC" value="1.397"/>
            <param key="device.toc.ogNewTimeHeadway" value="1.600"/>
            <param key="device.toc.ogChangeRate" value="0.800"/>
            <param key="device.toc.mrmDecel" value="3.000"/>
            <param key="device.toc.useColorScheme" value="true"/>
        </vType>
    </vTypeDistribution>
    
    
    
    
    





</additional>
