<nodes>
    <node id="center" x="0" y="0" type="traffic_light"/>
    <node id="left-node" x="-900" y="0" type="priority"/>
    <node id="top-node" x="0" y="500" type="priority"/>
    <node id="right-node" x="500" y="0" type="priority"/>
    <node id="bottom-node" x="0" y="-500" type="priority"/>

    <node id="split-left" x="-100" y="0" type="priority" />
</nodes>