<edges>
    <edge id="left-approaching" from="left-node" to="center" priority="78" numLanes="3" speed="19.444"/>
    <edge id="left-exit" from="center" to="left-node" priority="46" numLanes="2" speed="11.111">
    <!-- <edge id="left-exit" from="center" to="left-node" priority="46" numLanes="1" speed="11.111"> -->
        <neigh lane="left-approaching_2"/> 
    </edge>
 
    <edge id="top-approaching" from="top-node" to="center" priority="78" numLanes="3" speed="19.444" />
    <edge id="top-exit" from="center" to="top-node" priority="46" numLanes="2" speed="11.111" />
 
    <edge id="right-approaching" from="right-node" to="center" priority="78" numLanes="3" speed="19.444" />
    <edge id="right-exit" from="center" to="right-node" priority="46" numLanes="2" speed="11.111" />
    
    <edge id="bottom-approaching" from="bottom-node" to="center" priority="78" numLanes="3" speed="19.444" />
    <edge id="bottom-exit" from="center" to="bottom-node" priority="46" numLanes="2" speed="11.111" />
</edges>