<?xml version="1.0" ?><!-- generated on 04/05/21 18:50:42 by Eclipse SUMO duarouter Version 1.8.0
<configuration xmlns:xsi="http://www.w3.org/2001/XMLSchema-instance" xsi:noNamespaceSchemaLocation="http://sumo.dlr.de/xsd/duarouterConfiguration.xsd">

    <input>
        <net-file value="Roadworks/RoadworksIntersection.net.xml"/>
        <route-files value="trips.trips.xml"/>
    </input>

    <output>
        <output-file value="Roadworks/BaselinePenetration1/Route-Files/L0-HDV-Route.rou.xml"/>
        <alternatives-output value="Roadworks/BaselinePenetration1/Route-Files/L0-HDV-Route.rou.alt.xml"/>
    </output>

    <time>
        <begin value="0"/>
        <end value="3600"/>
    </time>

    <report>
        <no-warnings value="true"/>
        <ignore-errors value="true"/>
        <no-step-log value="true"/>
    </report>

</configuration>
--><routes xmlns:xsi="http://www.w3.org/2001/XMLSchema-instance" xsi:noNamespaceSchemaLocation="http://sumo.dlr.de/xsd/routes_file.xsd">
    <vehicle id="L0-HDV-0" type="L0-HDV-" depart="0.00">
        <route edges="bottom-approaching top-exit"/>
    </vehicle>
    <vehicle id="L0-HDV-1" type="L0-HDV-" depart="1.76">
        <route edges="bottom-approaching right-exit"/>
    </vehicle>
    <vehicle id="L0-HDV-3" type="L0-HDV-" depart="5.28">
        <route edges="top-approaching bottom-exit"/>
    </vehicle>
    <vehicle id="L0-HDV-4" type="L0-HDV-" depart="7.04">
        <route edges="right-approaching closed-lane remerging-lane left-exit"/>
    </vehicle>
    <vehicle id="L0-HDV-6" type="L0-HDV-" depart="10.56">
        <route edges="bottom-approaching top-exit"/>
    </vehicle>
    <vehicle id="L0-HDV-8" type="L0-HDV-" depart="14.08">
        <route edges="bottom-approaching closed-lane remerging-lane left-exit"/>
    </vehicle>
    <vehicle id="L0-HDV-9" type="L0-HDV-Left-" depart="15.84">
        <route edges="left-long-approaching preparation"/>
    </vehicle>
    <vehicle id="L0-HDV-10" type="L0-HDV-" depart="17.60">
        <route edges="left-long-approaching preparation left-short-approaching bottom-exit"/>
    </vehicle>
    <vehicle id="L0-HDV-11" type="L0-HDV-Left-" depart="19.36">
        <route edges="left-long-approaching preparation"/>
    </vehicle>
    <vehicle id="L0-HDV-12" type="L0-HDV-" depart="21.12">
        <route edges="bottom-approaching right-exit"/>
    </vehicle>
    <vehicle id="L0-HDV-13" type="L0-HDV-Straight-" depart="22.88">
        <route edges="left-long-approaching preparation left-short-approaching right-exit"/>
    </vehicle>
    <vehicle id="L0-HDV-14" type="L0-HDV-Straight-" depart="24.64">
        <route edges="left-long-approaching preparation left-short-approaching right-exit"/>
    </vehicle>
    <vehicle id="L0-HDV-15" type="L0-HDV-Straight-" depart="26.40">
        <route edges="left-long-approaching preparation left-short-approaching right-exit"/>
    </vehicle>
    <vehicle id="L0-HDV-16" type="L0-HDV-" depart="28.16">
        <route edges="top-approaching right-exit"/>
    </vehicle>
    <vehicle id="L0-HDV-18" type="L0-HDV-" depart="31.68">
        <route edges="top-approaching closed-lane remerging-lane left-exit"/>
    </vehicle>
    <vehicle id="L0-HDV-19" type="L0-HDV-" depart="33.44">
        <route edges="bottom-approaching top-exit"/>
    </vehicle>
    <vehicle id="L0-HDV-21" type="L0-HDV-" depart="36.96">
        <route edges="top-approaching closed-lane remerging-lane left-exit"/>
    </vehicle>
    <vehicle id="L0-HDV-22" type="L0-HDV-Left-" depart="38.72">
        <route edges="left-long-approaching preparation"/>
    </vehicle>
    <vehicle id="L0-HDV-23" type="L0-HDV-" depart="40.48">
        <route edges="bottom-approaching top-exit"/>
    </vehicle>
    <vehicle id="L0-HDV-24" type="L0-HDV-" depart="42.24">
        <route edges="bottom-approaching right-exit"/>
    </vehicle>
    <vehicle id="L0-HDV-25" type="L0-HDV-" depart="44.00">
        <route edges="right-approaching top-exit"/>
    </vehicle>
    <vehicle id="L0-HDV-29" type="L0-HDV-" depart="51.04">
        <route edges="bottom-approaching top-exit"/>
    </vehicle>
    <vehicle id="L0-HDV-32" type="L0-HDV-" depart="56.32">
        <route edges="bottom-approaching closed-lane remerging-lane left-exit"/>
    </vehicle>
    <vehicle id="L0-HDV-34" type="L0-HDV-Left-" depart="59.84">
        <route edges="left-long-approaching preparation"/>
    </vehicle>
    <vehicle id="L0-HDV-35" type="L0-HDV-" depart="61.60">
        <route edges="top-approaching bottom-exit"/>
    </vehicle>
    <vehicle id="L0-HDV-36" type="L0-HDV-" depart="63.36">
        <route edges="left-long-approaching preparation left-short-approaching bottom-exit"/>
    </vehicle>
    <vehicle id="L0-HDV-37" type="L0-HDV-" depart="65.12">
        <route edges="right-approaching top-exit"/>
    </vehicle>
    <vehicle id="L0-HDV-38" type="L0-HDV-" depart="66.88">
        <route edges="bottom-approaching top-exit"/>
    </vehicle>
    <vehicle id="L0-HDV-39" type="L0-HDV-" depart="68.64">
        <route edges="left-long-approaching preparation left-short-approaching bottom-exit"/>
    </vehicle>
    <vehicle id="L0-HDV-40" type="L0-HDV-" depart="70.40">
        <route edges="top-approaching closed-lane remerging-lane left-exit"/>
    </vehicle>
    <vehicle id="L0-HDV-41" type="L0-HDV-" depart="72.16">
        <route edges="bottom-approaching closed-lane remerging-lane left-exit"/>
    </vehicle>
    <vehicle id="L0-HDV-42" type="L0-HDV-" depart="73.92">
        <route edges="bottom-approaching closed-lane remerging-lane left-exit"/>
    </vehicle>
    <vehicle id="L0-HDV-44" type="L0-HDV-" depart="77.44">
        <route edges="right-approaching closed-lane remerging-lane left-exit"/>
    </vehicle>
    <vehicle id="L0-HDV-46" type="L0-HDV-" depart="80.96">
        <route edges="bottom-approaching right-exit"/>
    </vehicle>
    <vehicle id="L0-HDV-47" type="L0-HDV-Left-" depart="82.72">
        <route edges="left-long-approaching preparation"/>
    </vehicle>
    <vehicle id="L0-HDV-49" type="L0-HDV-" depart="86.24">
        <route edges="top-approaching bottom-exit"/>
    </vehicle>
    <vehicle id="L0-HDV-51" type="L0-HDV-Straight-" depart="89.76">
        <route edges="left-long-approaching preparation left-short-approaching right-exit"/>
    </vehicle>
    <vehicle id="L0-HDV-52" type="L0-HDV-" depart="91.52">
        <route edges="right-approaching closed-lane remerging-lane left-exit"/>
    </vehicle>
    <vehicle id="L0-HDV-53" type="L0-HDV-" depart="93.28">
        <route edges="top-approaching bottom-exit"/>
    </vehicle>
    <vehicle id="L0-HDV-54" type="L0-HDV-" depart="95.04">
        <route edges="top-approaching bottom-exit"/>
    </vehicle>
    <vehicle id="L0-HDV-55" type="L0-HDV-" depart="96.80">
        <route edges="top-approaching bottom-exit"/>
    </vehicle>
    <vehicle id="L0-HDV-57" type="L0-HDV-" depart="100.32">
        <route edges="top-approaching right-exit"/>
    </vehicle>
    <vehicle id="L0-HDV-58" type="L0-HDV-" depart="102.08">
        <route edges="bottom-approaching top-exit"/>
    </vehicle>
    <vehicle id="L0-HDV-59" type="L0-HDV-" depart="103.84">
        <route edges="left-long-approaching preparation left-short-approaching bottom-exit"/>
    </vehicle>
    <vehicle id="L0-HDV-61" type="L0-HDV-" depart="107.36">
        <route edges="left-long-approaching preparation left-short-approaching bottom-exit"/>
    </vehicle>
    <vehicle id="L0-HDV-62" type="L0-HDV-" depart="109.12">
        <route edges="bottom-approaching right-exit"/>
    </vehicle>
    <vehicle id="L0-HDV-63" type="L0-HDV-" depart="110.88">
        <route edges="left-long-approaching preparation left-short-approaching bottom-exit"/>
    </vehicle>
    <vehicle id="L0-HDV-64" type="L0-HDV-Straight-" depart="112.64">
        <route edges="left-long-approaching preparation left-short-approaching right-exit"/>
    </vehicle>
    <vehicle id="L0-HDV-65" type="L0-HDV-" depart="114.40">
        <route edges="right-approaching closed-lane remerging-lane left-exit"/>
    </vehicle>
    <vehicle id="L0-HDV-68" type="L0-HDV-" depart="119.68">
        <route edges="left-long-approaching preparation left-short-approaching bottom-exit"/>
    </vehicle>
    <vehicle id="L0-HDV-70" type="L0-HDV-" depart="123.20">
        <route edges="right-approaching bottom-exit"/>
    </vehicle>
    <vehicle id="L0-HDV-72" type="L0-HDV-" depart="126.72">
        <route edges="bottom-approaching top-exit"/>
    </vehicle>
    <vehicle id="L0-HDV-74" type="L0-HDV-" depart="130.24">
        <route edges="right-approaching bottom-exit"/>
    </vehicle>
    <vehicle id="L0-HDV-75" type="L0-HDV-" depart="132.00">
        <route edges="bottom-approaching right-exit"/>
    </vehicle>
    <vehicle id="L0-HDV-77" type="L0-HDV-" depart="135.52">
        <route edges="bottom-approaching right-exit"/>
    </vehicle>
    <vehicle id="L0-HDV-78" type="L0-HDV-" depart="137.28">
        <route edges="top-approaching right-exit"/>
    </vehicle>
    <vehicle id="L0-HDV-80" type="L0-HDV-" depart="140.80">
        <route edges="bottom-approaching closed-lane remerging-lane left-exit"/>
    </vehicle>
    <vehicle id="L0-HDV-81" type="L0-HDV-" depart="142.56">
        <route edges="right-approaching top-exit"/>
    </vehicle>
    <vehicle id="L0-HDV-82" type="L0-HDV-Left-" depart="144.32">
        <route edges="left-long-approaching preparation"/>
    </vehicle>
    <vehicle id="L0-HDV-83" type="L0-HDV-" depart="146.08">
        <route edges="top-approaching right-exit"/>
    </vehicle>
    <vehicle id="L0-HDV-84" type="L0-HDV-" depart="147.84">
        <route edges="right-approaching top-exit"/>
    </vehicle>
    <vehicle id="L0-HDV-85" type="L0-HDV-" depart="149.60">
        <route edges="top-approaching closed-lane remerging-lane left-exit"/>
    </vehicle>
    <vehicle id="L0-HDV-86" type="L0-HDV-" depart="151.36">
        <route edges="top-approaching bottom-exit"/>
    </vehicle>
    <vehicle id="L0-HDV-87" type="L0-HDV-Left-" depart="153.12">
        <route edges="left-long-approaching preparation"/>
    </vehicle>
    <vehicle id="L0-HDV-88" type="L0-HDV-" depart="154.88">
        <route edges="top-approaching closed-lane remerging-lane left-exit"/>
    </vehicle>
    <vehicle id="L0-HDV-89" type="L0-HDV-Straight-" depart="156.64">
        <route edges="left-long-approaching preparation left-short-approaching right-exit"/>
    </vehicle>
    <vehicle id="L0-HDV-90" type="L0-HDV-" depart="158.40">
        <route edges="top-approaching right-exit"/>
    </vehicle>
    <vehicle id="L0-HDV-91" type="L0-HDV-" depart="160.16">
        <route edges="top-approaching right-exit"/>
    </vehicle>
    <vehicle id="L0-HDV-92" type="L0-HDV-" depart="161.92">
        <route edges="top-approaching right-exit"/>
    </vehicle>
    <vehicle id="L0-HDV-94" type="L0-HDV-Straight-" depart="165.44">
        <route edges="left-long-approaching preparation left-short-approaching right-exit"/>
    </vehicle>
    <vehicle id="L0-HDV-95" type="L0-HDV-" depart="167.20">
        <route edges="top-approaching closed-lane remerging-lane left-exit"/>
    </vehicle>
    <vehicle id="L0-HDV-96" type="L0-HDV-" depart="168.96">
        <route edges="bottom-approaching right-exit"/>
    </vehicle>
    <vehicle id="L0-HDV-98" type="L0-HDV-" depart="172.48">
        <route edges="bottom-approaching top-exit"/>
    </vehicle>
    <vehicle id="L0-HDV-100" type="L0-HDV-" depart="176.00">
        <route edges="top-approaching closed-lane remerging-lane left-exit"/>
    </vehicle>
    <vehicle id="L0-HDV-101" type="L0-HDV-Left-" depart="177.76">
        <route edges="left-long-approaching preparation"/>
    </vehicle>
    <vehicle id="L0-HDV-104" type="L0-HDV-" depart="183.04">
        <route edges="right-approaching closed-lane remerging-lane left-exit"/>
    </vehicle>
    <vehicle id="L0-HDV-105" type="L0-HDV-" depart="184.80">
        <route edges="top-approaching right-exit"/>
    </vehicle>
    <vehicle id="L0-HDV-106" type="L0-HDV-" depart="186.56">
        <route edges="top-approaching closed-lane remerging-lane left-exit"/>
    </vehicle>
    <vehicle id="L0-HDV-108" type="L0-HDV-Straight-" depart="190.08">
        <route edges="left-long-approaching preparation left-short-approaching right-exit"/>
    </vehicle>
    <vehicle id="L0-HDV-111" type="L0-HDV-" depart="195.36">
        <route edges="bottom-approaching right-exit"/>
    </vehicle>
    <vehicle id="L0-HDV-112" type="L0-HDV-" depart="197.12">
        <route edges="right-approaching bottom-exit"/>
    </vehicle>
    <vehicle id="L0-HDV-113" type="L0-HDV-Left-" depart="198.88">
        <route edges="left-long-approaching preparation"/>
    </vehicle>
    <vehicle id="L0-HDV-115" type="L0-HDV-" depart="202.40">
        <route edges="bottom-approaching right-exit"/>
    </vehicle>
    <vehicle id="L0-HDV-116" type="L0-HDV-" depart="204.16">
        <route edges="top-approaching right-exit"/>
    </vehicle>
    <vehicle id="L0-HDV-117" type="L0-HDV-" depart="205.92">
        <route edges="left-long-approaching preparation left-short-approaching bottom-exit"/>
    </vehicle>
    <vehicle id="L0-HDV-119" type="L0-HDV-" depart="209.44">
        <route edges="right-approaching closed-lane remerging-lane left-exit"/>
    </vehicle>
    <vehicle id="L0-HDV-124" type="L0-HDV-" depart="218.24">
        <route edges="right-approaching bottom-exit"/>
    </vehicle>
    <vehicle id="L0-HDV-125" type="L0-HDV-" depart="220.00">
        <route edges="right-approaching closed-lane remerging-lane left-exit"/>
    </vehicle>
    <vehicle id="L0-HDV-126" type="L0-HDV-" depart="221.76">
        <route edges="bottom-approaching closed-lane remerging-lane left-exit"/>
    </vehicle>
    <vehicle id="L0-HDV-128" type="L0-HDV-" depart="225.28">
        <route edges="top-approaching bottom-exit"/>
    </vehicle>
    <vehicle id="L0-HDV-129" type="L0-HDV-" depart="227.04">
        <route edges="bottom-approaching closed-lane remerging-lane left-exit"/>
    </vehicle>
    <vehicle id="L0-HDV-130" type="L0-HDV-" depart="228.80">
        <route edges="bottom-approaching right-exit"/>
    </vehicle>
    <vehicle id="L0-HDV-133" type="L0-HDV-" depart="234.08">
        <route edges="top-approaching right-exit"/>
    </vehicle>
    <vehicle id="L0-HDV-134" type="L0-HDV-Left-" depart="235.84">
        <route edges="left-long-approaching preparation"/>
    </vehicle>
    <vehicle id="L0-HDV-135" type="L0-HDV-" depart="237.60">
        <route edges="right-approaching closed-lane remerging-lane left-exit"/>
    </vehicle>
    <vehicle id="L0-HDV-136" type="L0-HDV-" depart="239.36">
        <route edges="right-approaching top-exit"/>
    </vehicle>
    <vehicle id="L0-HDV-138" type="L0-HDV-" depart="242.88">
        <route edges="bottom-approaching closed-lane remerging-lane left-exit"/>
    </vehicle>
    <vehicle id="L0-HDV-139" type="L0-HDV-" depart="244.64">
        <route edges="left-long-approaching preparation left-short-approaching bottom-exit"/>
    </vehicle>
    <vehicle id="L0-HDV-140" type="L0-HDV-" depart="246.40">
        <route edges="top-approaching bottom-exit"/>
    </vehicle>
    <vehicle id="L0-HDV-141" type="L0-HDV-" depart="248.16">
        <route edges="top-approaching right-exit"/>
    </vehicle>
    <vehicle id="L0-HDV-142" type="L0-HDV-" depart="249.92">
        <route edges="right-approaching closed-lane remerging-lane left-exit"/>
    </vehicle>
    <vehicle id="L0-HDV-143" type="L0-HDV-" depart="251.68">
        <route edges="top-approaching right-exit"/>
    </vehicle>
    <vehicle id="L0-HDV-145" type="L0-HDV-" depart="255.20">
        <route edges="right-approaching top-exit"/>
    </vehicle>
    <vehicle id="L0-HDV-147" type="L0-HDV-" depart="258.72">
        <route edges="top-approaching right-exit"/>
    </vehicle>
    <vehicle id="L0-HDV-148" type="L0-HDV-Straight-" depart="260.48">
        <route edges="left-long-approaching preparation left-short-approaching right-exit"/>
    </vehicle>
    <vehicle id="L0-HDV-149" type="L0-HDV-" depart="262.24">
        <route edges="left-long-approaching preparation left-short-approaching bottom-exit"/>
    </vehicle>
    <vehicle id="L0-HDV-151" type="L0-HDV-" depart="265.76">
        <route edges="top-approaching right-exit"/>
    </vehicle>
    <vehicle id="L0-HDV-152" type="L0-HDV-" depart="267.52">
        <route edges="top-approaching closed-lane remerging-lane left-exit"/>
    </vehicle>
    <vehicle id="L0-HDV-153" type="L0-HDV-" depart="269.28">
        <route edges="bottom-approaching right-exit"/>
    </vehicle>
    <vehicle id="L0-HDV-155" type="L0-HDV-" depart="272.80">
        <route edges="right-approaching bottom-exit"/>
    </vehicle>
    <vehicle id="L0-HDV-156" type="L0-HDV-" depart="274.56">
        <route edges="left-long-approaching preparation left-short-approaching bottom-exit"/>
    </vehicle>
    <vehicle id="L0-HDV-157" type="L0-HDV-Left-" depart="276.32">
        <route edges="left-long-approaching preparation"/>
    </vehicle>
    <vehicle id="L0-HDV-158" type="L0-HDV-Straight-" depart="278.08">
        <route edges="left-long-approaching preparation left-short-approaching right-exit"/>
    </vehicle>
    <vehicle id="L0-HDV-159" type="L0-HDV-" depart="279.84">
        <route edges="right-approaching bottom-exit"/>
    </vehicle>
    <vehicle id="L0-HDV-160" type="L0-HDV-" depart="281.60">
        <route edges="right-approaching bottom-exit"/>
    </vehicle>
    <vehicle id="L0-HDV-161" type="L0-HDV-" depart="283.36">
        <route edges="bottom-approaching right-exit"/>
    </vehicle>
    <vehicle id="L0-HDV-162" type="L0-HDV-" depart="285.12">
        <route edges="bottom-approaching top-exit"/>
    </vehicle>
    <vehicle id="L0-HDV-163" type="L0-HDV-Straight-" depart="286.88">
        <route edges="left-long-approaching preparation left-short-approaching right-exit"/>
    </vehicle>
    <vehicle id="L0-HDV-164" type="L0-HDV-" depart="288.64">
        <route edges="top-approaching bottom-exit"/>
    </vehicle>
    <vehicle id="L0-HDV-165" type="L0-HDV-" depart="290.40">
        <route edges="top-approaching bottom-exit"/>
    </vehicle>
    <vehicle id="L0-HDV-167" type="L0-HDV-" depart="293.92">
        <route edges="top-approaching closed-lane remerging-lane left-exit"/>
    </vehicle>
    <vehicle id="L0-HDV-168" type="L0-HDV-" depart="295.68">
        <route edges="top-approaching right-exit"/>
    </vehicle>
    <vehicle id="L0-HDV-169" type="L0-HDV-" depart="297.44">
        <route edges="left-long-approaching preparation left-short-approaching bottom-exit"/>
    </vehicle>
    <vehicle id="L0-HDV-170" type="L0-HDV-" depart="299.20">
        <route edges="bottom-approaching closed-lane remerging-lane left-exit"/>
    </vehicle>
    <vehicle id="L0-HDV-172" type="L0-HDV-" depart="302.72">
        <route edges="top-approaching closed-lane remerging-lane left-exit"/>
    </vehicle>
    <vehicle id="L0-HDV-173" type="L0-HDV-" depart="304.48">
        <route edges="right-approaching bottom-exit"/>
    </vehicle>
    <vehicle id="L0-HDV-174" type="L0-HDV-" depart="306.24">
        <route edges="bottom-approaching right-exit"/>
    </vehicle>
    <vehicle id="L0-HDV-175" type="L0-HDV-" depart="308.00">
        <route edges="top-approaching closed-lane remerging-lane left-exit"/>
    </vehicle>
    <vehicle id="L0-HDV-178" type="L0-HDV-" depart="313.28">
        <route edges="right-approaching closed-lane remerging-lane left-exit"/>
    </vehicle>
    <vehicle id="L0-HDV-179" type="L0-HDV-" depart="315.04">
        <route edges="right-approaching top-exit"/>
    </vehicle>
    <vehicle id="L0-HDV-180" type="L0-HDV-" depart="316.80">
        <route edges="top-approaching right-exit"/>
    </vehicle>
    <vehicle id="L0-HDV-181" type="L0-HDV-" depart="318.56">
        <route edges="right-approaching closed-lane remerging-lane left-exit"/>
    </vehicle>
    <vehicle id="L0-HDV-182" type="L0-HDV-" depart="320.32">
        <route edges="top-approaching closed-lane remerging-lane left-exit"/>
    </vehicle>
    <vehicle id="L0-HDV-183" type="L0-HDV-" depart="322.08">
        <route edges="top-approaching closed-lane remerging-lane left-exit"/>
    </vehicle>
    <vehicle id="L0-HDV-185" type="L0-HDV-" depart="325.60">
        <route edges="right-approaching closed-lane remerging-lane left-exit"/>
    </vehicle>
    <vehicle id="L0-HDV-187" type="L0-HDV-Straight-" depart="329.12">
        <route edges="left-long-approaching preparation left-short-approaching right-exit"/>
    </vehicle>
    <vehicle id="L0-HDV-189" type="L0-HDV-Straight-" depart="332.64">
        <route edges="left-long-approaching preparation left-short-approaching right-exit"/>
    </vehicle>
    <vehicle id="L0-HDV-190" type="L0-HDV-" depart="334.40">
        <route edges="right-approaching bottom-exit"/>
    </vehicle>
    <vehicle id="L0-HDV-191" type="L0-HDV-" depart="336.16">
        <route edges="bottom-approaching top-exit"/>
    </vehicle>
    <vehicle id="L0-HDV-192" type="L0-HDV-" depart="337.92">
        <route edges="bottom-approaching top-exit"/>
    </vehicle>
    <vehicle id="L0-HDV-193" type="L0-HDV-" depart="339.68">
        <route edges="top-approaching bottom-exit"/>
    </vehicle>
    <vehicle id="L0-HDV-194" type="L0-HDV-" depart="341.44">
        <route edges="right-approaching closed-lane remerging-lane left-exit"/>
    </vehicle>
    <vehicle id="L0-HDV-195" type="L0-HDV-" depart="343.20">
        <route edges="top-approaching bottom-exit"/>
    </vehicle>
    <vehicle id="L0-HDV-197" type="L0-HDV-" depart="346.72">
        <route edges="right-approaching bottom-exit"/>
    </vehicle>
    <vehicle id="L0-HDV-198" type="L0-HDV-Left-" depart="348.48">
        <route edges="left-long-approaching preparation"/>
    </vehicle>
    <vehicle id="L0-HDV-201" type="L0-HDV-" depart="353.76">
        <route edges="bottom-approaching top-exit"/>
    </vehicle>
    <vehicle id="L0-HDV-202" type="L0-HDV-Left-" depart="355.52">
        <route edges="left-long-approaching preparation"/>
    </vehicle>
    <vehicle id="L0-HDV-203" type="L0-HDV-Left-" depart="357.28">
        <route edges="left-long-approaching preparation"/>
    </vehicle>
    <vehicle id="L0-HDV-204" type="L0-HDV-" depart="359.04">
        <route edges="bottom-approaching top-exit"/>
    </vehicle>
    <vehicle id="L0-HDV-205" type="L0-HDV-" depart="360.80">
        <route edges="bottom-approaching right-exit"/>
    </vehicle>
    <vehicle id="L0-HDV-206" type="L0-HDV-Left-" depart="362.56">
        <route edges="left-long-approaching preparation"/>
    </vehicle>
    <vehicle id="L0-HDV-207" type="L0-HDV-" depart="364.32">
        <route edges="right-approaching top-exit"/>
    </vehicle>
    <vehicle id="L0-HDV-208" type="L0-HDV-" depart="366.08">
        <route edges="top-approaching closed-lane remerging-lane left-exit"/>
    </vehicle>
    <vehicle id="L0-HDV-210" type="L0-HDV-" depart="369.60">
        <route edges="right-approaching top-exit"/>
    </vehicle>
    <vehicle id="L0-HDV-211" type="L0-HDV-" depart="371.36">
        <route edges="right-approaching closed-lane remerging-lane left-exit"/>
    </vehicle>
    <vehicle id="L0-HDV-213" type="L0-HDV-Straight-" depart="374.88">
        <route edges="left-long-approaching preparation left-short-approaching right-exit"/>
    </vehicle>
    <vehicle id="L0-HDV-215" type="L0-HDV-" depart="378.40">
        <route edges="bottom-approaching closed-lane remerging-lane left-exit"/>
    </vehicle>
    <vehicle id="L0-HDV-216" type="L0-HDV-" depart="380.16">
        <route edges="right-approaching bottom-exit"/>
    </vehicle>
    <vehicle id="L0-HDV-217" type="L0-HDV-Straight-" depart="381.92">
        <route edges="left-long-approaching preparation left-short-approaching right-exit"/>
    </vehicle>
    <vehicle id="L0-HDV-218" type="L0-HDV-Straight-" depart="383.68">
        <route edges="left-long-approaching preparation left-short-approaching right-exit"/>
    </vehicle>
    <vehicle id="L0-HDV-219" type="L0-HDV-" depart="385.44">
        <route edges="right-approaching closed-lane remerging-lane left-exit"/>
    </vehicle>
    <vehicle id="L0-HDV-220" type="L0-HDV-" depart="387.20">
        <route edges="bottom-approaching right-exit"/>
    </vehicle>
    <vehicle id="L0-HDV-221" type="L0-HDV-" depart="388.96">
        <route edges="right-approaching bottom-exit"/>
    </vehicle>
    <vehicle id="L0-HDV-222" type="L0-HDV-" depart="390.72">
        <route edges="top-approaching right-exit"/>
    </vehicle>
    <vehicle id="L0-HDV-224" type="L0-HDV-Straight-" depart="394.24">
        <route edges="left-long-approaching preparation left-short-approaching right-exit"/>
    </vehicle>
    <vehicle id="L0-HDV-225" type="L0-HDV-Straight-" depart="396.00">
        <route edges="left-long-approaching preparation left-short-approaching right-exit"/>
    </vehicle>
    <vehicle id="L0-HDV-226" type="L0-HDV-" depart="397.76">
        <route edges="bottom-approaching closed-lane remerging-lane left-exit"/>
    </vehicle>
    <vehicle id="L0-HDV-227" type="L0-HDV-" depart="399.52">
        <route edges="right-approaching top-exit"/>
    </vehicle>
    <vehicle id="L0-HDV-228" type="L0-HDV-" depart="401.28">
        <route edges="right-approaching top-exit"/>
    </vehicle>
    <vehicle id="L0-HDV-231" type="L0-HDV-" depart="406.56">
        <route edges="left-long-approaching preparation left-short-approaching bottom-exit"/>
    </vehicle>
    <vehicle id="L0-HDV-232" type="L0-HDV-" depart="408.32">
        <route edges="top-approaching right-exit"/>
    </vehicle>
    <vehicle id="L0-HDV-234" type="L0-HDV-" depart="411.84">
        <route edges="bottom-approaching right-exit"/>
    </vehicle>
    <vehicle id="L0-HDV-235" type="L0-HDV-" depart="413.60">
        <route edges="right-approaching bottom-exit"/>
    </vehicle>
    <vehicle id="L0-HDV-238" type="L0-HDV-" depart="418.88">
        <route edges="top-approaching bottom-exit"/>
    </vehicle>
    <vehicle id="L0-HDV-239" type="L0-HDV-" depart="420.64">
        <route edges="bottom-approaching right-exit"/>
    </vehicle>
    <vehicle id="L0-HDV-241" type="L0-HDV-Left-" depart="424.16">
        <route edges="left-long-approaching preparation"/>
    </vehicle>
    <vehicle id="L0-HDV-242" type="L0-HDV-" depart="425.92">
        <route edges="bottom-approaching closed-lane remerging-lane left-exit"/>
    </vehicle>
    <vehicle id="L0-HDV-243" type="L0-HDV-" depart="427.68">
        <route edges="top-approaching right-exit"/>
    </vehicle>
    <vehicle id="L0-HDV-244" type="L0-HDV-Straight-" depart="429.44">
        <route edges="left-long-approaching preparation left-short-approaching right-exit"/>
    </vehicle>
    <vehicle id="L0-HDV-245" type="L0-HDV-Straight-" depart="431.20">
        <route edges="left-long-approaching preparation left-short-approaching right-exit"/>
    </vehicle>
    <vehicle id="L0-HDV-247" type="L0-HDV-" depart="434.72">
        <route edges="bottom-approaching top-exit"/>
    </vehicle>
    <vehicle id="L0-HDV-248" type="L0-HDV-" depart="436.48">
        <route edges="top-approaching right-exit"/>
    </vehicle>
    <vehicle id="L0-HDV-250" type="L0-HDV-Straight-" depart="440.00">
        <route edges="left-long-approaching preparation left-short-approaching right-exit"/>
    </vehicle>
    <vehicle id="L0-HDV-251" type="L0-HDV-" depart="441.76">
        <route edges="right-approaching bottom-exit"/>
    </vehicle>
    <vehicle id="L0-HDV-252" type="L0-HDV-" depart="443.52">
        <route edges="top-approaching closed-lane remerging-lane left-exit"/>
    </vehicle>
    <vehicle id="L0-HDV-253" type="L0-HDV-" depart="445.28">
        <route edges="right-approaching bottom-exit"/>
    </vehicle>
    <vehicle id="L0-HDV-254" type="L0-HDV-" depart="447.04">
        <route edges="right-approaching bottom-exit"/>
    </vehicle>
    <vehicle id="L0-HDV-257" type="L0-HDV-" depart="452.32">
        <route edges="bottom-approaching closed-lane remerging-lane left-exit"/>
    </vehicle>
    <vehicle id="L0-HDV-258" type="L0-HDV-" depart="454.08">
        <route edges="top-approaching right-exit"/>
    </vehicle>
    <vehicle id="L0-HDV-264" type="L0-HDV-" depart="464.64">
        <route edges="right-approaching closed-lane remerging-lane left-exit"/>
    </vehicle>
    <vehicle id="L0-HDV-266" type="L0-HDV-" depart="468.16">
        <route edges="top-approaching bottom-exit"/>
    </vehicle>
    <vehicle id="L0-HDV-267" type="L0-HDV-" depart="469.92">
        <route edges="bottom-approaching top-exit"/>
    </vehicle>
    <vehicle id="L0-HDV-269" type="L0-HDV-" depart="473.44">
        <route edges="top-approaching right-exit"/>
    </vehicle>
    <vehicle id="L0-HDV-270" type="L0-HDV-" depart="475.20">
        <route edges="right-approaching top-exit"/>
    </vehicle>
    <vehicle id="L0-HDV-271" type="L0-HDV-" depart="476.96">
        <route edges="right-approaching closed-lane remerging-lane left-exit"/>
    </vehicle>
    <vehicle id="L0-HDV-274" type="L0-HDV-Straight-" depart="482.24">
        <route edges="left-long-approaching preparation left-short-approaching right-exit"/>
    </vehicle>
    <vehicle id="L0-HDV-276" type="L0-HDV-Left-" depart="485.76">
        <route edges="left-long-approaching preparation"/>
    </vehicle>
    <vehicle id="L0-HDV-278" type="L0-HDV-" depart="489.28">
        <route edges="right-approaching closed-lane remerging-lane left-exit"/>
    </vehicle>
    <vehicle id="L0-HDV-279" type="L0-HDV-" depart="491.04">
        <route edges="right-approaching bottom-exit"/>
    </vehicle>
    <vehicle id="L0-HDV-281" type="L0-HDV-" depart="494.56">
        <route edges="right-approaching closed-lane remerging-lane left-exit"/>
    </vehicle>
    <vehicle id="L0-HDV-284" type="L0-HDV-Straight-" depart="499.84">
        <route edges="left-long-approaching preparation left-short-approaching right-exit"/>
    </vehicle>