<?xml version="1.0" ?><!-- generated on 03/27/21 19:04:24 by Eclipse SUMO duarouter Version 1.8.0
<configuration xmlns:xsi="http://www.w3.org/2001/XMLSchema-instance" xsi:noNamespaceSchemaLocation="http://sumo.dlr.de/xsd/duarouterConfiguration.xsd">

    <input>
        <net-file value="Roadworks/RoadworksIntersection.net.xml"/>
        <route-files value="trips.trips.xml"/>
    </input>

    <output>
        <output-file value="Roadworks/BaselinePenetration1/Route-Files/L2-AV-Route.rou.xml"/>
        <alternatives-output value="Roadworks/BaselinePenetration1/Route-Files/L2-AV-Route.rou.alt.xml"/>
    </output>

    <time>
        <begin value="0"/>
        <end value="3600"/>
    </time>

    <report>
        <no-warnings value="true"/>
        <ignore-errors value="true"/>
        <no-step-log value="true"/>
    </report>

</configuration>
--><routes xmlns:xsi="http://www.w3.org/2001/XMLSchema-instance" xsi:noNamespaceSchemaLocation="http://sumo.dlr.de/xsd/routes_file.xsd">
    <vehicle id="L2-AV-1" type="L2-AV-Right-" depart="19.00">
        <route edges="left-long-approaching preparation left-short-approaching bottom-exit"/>
    </vehicle>
    <vehicle id="L2-AV-2" type="L2-AV-" depart="38.00">
        <route edges="bottom-approaching closed-lane remerging-lane left-exit"/>
    </vehicle>
    <vehicle id="L2-AV-4" type="L2-AV-" depart="76.00">
        <route edges="top-approaching bottom-exit"/>
    </vehicle>
    <vehicle id="L2-AV-5" type="L2-AV-" depart="95.00">
        <route edges="right-approaching closed-lane remerging-lane left-exit"/>
    </vehicle>
    <vehicle id="L2-AV-7" type="L2-AV-" depart="133.00">
        <route edges="bottom-approaching top-exit"/>
    </vehicle>
    <vehicle id="L2-AV-9" type="L2-AV-" depart="171.00">
        <route edges="top-approaching bottom-exit"/>
    </vehicle>
    <vehicle id="L2-AV-10" type="L2-AV-" depart="190.00">
        <route edges="left-long-approaching preparation left-short-approaching right-exit"/>
    </vehicle>
    <vehicle id="L2-AV-11" type="L2-AV-" depart="209.00">
        <route edges="right-approaching top-exit"/>
    </vehicle>
    <vehicle id="L2-AV-12" type="L2-AV-" depart="228.00">
        <route edges="top-approaching bottom-exit"/>
    </vehicle>
    <vehicle id="L2-AV-14" type="L2-AV-" depart="266.00">
        <route edges="right-approaching bottom-exit"/>
    </vehicle>
    <vehicle id="L2-AV-15" type="L2-AV-Right-" depart="285.00">
        <route edges="left-long-approaching preparation left-short-approaching bottom-exit"/>
    </vehicle>
    <vehicle id="L2-AV-17" type="L2-AV-" depart="323.00">
        <route edges="right-approaching closed-lane remerging-lane left-exit"/>
    </vehicle>
    <vehicle id="L2-AV-18" type="L2-AV-" depart="342.00">
        <route edges="top-approaching right-exit"/>
    </vehicle>
    <vehicle id="L2-AV-20" type="L2-AV-" depart="380.00">
        <route edges="right-approaching closed-lane remerging-lane left-exit"/>
    </vehicle>
    <vehicle id="L2-AV-21" type="L2-AV-" depart="399.00">
        <route edges="right-approaching closed-lane remerging-lane left-exit"/>
    </vehicle>
    <vehicle id="L2-AV-22" type="L2-AV-" depart="418.00">
        <route edges="bottom-approaching closed-lane remerging-lane left-exit"/>
    </vehicle>
    <vehicle id="L2-AV-23" type="L2-AV-" depart="437.00">
        <route edges="top-approaching bottom-exit"/>
    </vehicle>
    <vehicle id="L2-AV-24" type="L2-AV-" depart="456.00">
        <route edges="bottom-approaching right-exit"/>
    </vehicle>
    <vehicle id="L2-AV-25" type="L2-AV-" depart="475.00">
        <route edges="left-long-approaching preparation left-short-approaching right-exit"/>
    </vehicle>
    <vehicle id="L2-AV-27" type="L2-AV-" depart="513.00">
        <route edges="top-approaching bottom-exit"/>
    </vehicle>
    <vehicle id="L2-AV-28" type="L2-AV-Right-" depart="532.00">
        <route edges="left-long-approaching preparation left-short-approaching bottom-exit"/>
    </vehicle>
    <vehicle id="L2-AV-29" type="L2-AV-" depart="551.00">
        <route edges="right-approaching closed-lane remerging-lane left-exit"/>
    </vehicle>
    <vehicle id="L2-AV-30" type="L2-AV-" depart="570.00">
        <route edges="left-long-approaching preparation left-short-approaching right-exit"/>
    </vehicle>
    <vehicle id="L2-AV-31" type="L2-AV-" depart="589.00">
        <route edges="left-long-approaching preparation left-short-approaching right-exit"/>
    </vehicle>
    <vehicle id="L2-AV-32" type="L2-AV-" depart="608.00">
        <route edges="top-approaching bottom-exit"/>
    </vehicle>
    <vehicle id="L2-AV-34" type="L2-AV-" depart="646.00">
        <route edges="top-approaching right-exit"/>
    </vehicle>
    <vehicle id="L2-AV-35" type="L2-AV-" depart="665.00">
        <route edges="bottom-approaching closed-lane remerging-lane left-exit"/>
    </vehicle>
    <vehicle id="L2-AV-36" type="L2-AV-" depart="684.00">
        <route edges="bottom-approaching closed-lane remerging-lane left-exit"/>
    </vehicle>
    <vehicle id="L2-AV-37" type="L2-AV-" depart="703.00">
        <route edges="bottom-approaching right-exit"/>
    </vehicle>
    <vehicle id="L2-AV-39" type="L2-AV-" depart="741.00">
        <route edges="right-approaching top-exit"/>
    </vehicle>
    <vehicle id="L2-AV-40" type="L2-AV-" depart="760.00">
        <route edges="bottom-approaching closed-lane remerging-lane left-exit"/>
    </vehicle>
    <vehicle id="L2-AV-42" type="L2-AV-Left-" depart="798.00">
        <route edges="left-long-approaching preparation"/>
    </vehicle>
    <vehicle id="L2-AV-43" type="L2-AV-" depart="817.00">
        <route edges="right-approaching top-exit"/>
    </vehicle>
    <vehicle id="L2-AV-44" type="L2-AV-Right-" depart="836.00">
        <route edges="left-long-approaching preparation left-short-approaching bottom-exit"/>
    </vehicle>
    <vehicle id="L2-AV-45" type="L2-AV-Right-" depart="855.00">
        <route edges="left-long-approaching preparation left-short-approaching bottom-exit"/>
    </vehicle>
    <vehicle id="L2-AV-46" type="L2-AV-Left-" depart="874.00">
        <route edges="left-long-approaching preparation"/>
    </vehicle>
    <vehicle id="L2-AV-47" type="L2-AV-Right-" depart="893.00">
        <route edges="left-long-approaching preparation left-short-approaching bottom-exit"/>
    </vehicle>
    <vehicle id="L2-AV-49" type="L2-AV-" depart="931.00">
        <route edges="top-approaching closed-lane remerging-lane left-exit"/>
    </vehicle>
    <vehicle id="L2-AV-50" type="L2-AV-Right-" depart="950.00">
        <route edges="left-long-approaching preparation left-short-approaching bottom-exit"/>
    </vehicle>
    <vehicle id="L2-AV-51" type="L2-AV-" depart="969.00">
        <route edges="top-approaching closed-lane remerging-lane left-exit"/>
    </vehicle>
    <vehicle id="L2-AV-54" type="L2-AV-" depart="1026.00">
        <route edges="right-approaching bottom-exit"/>
    </vehicle>
    <vehicle id="L2-AV-55" type="L2-AV-" depart="1045.00">
        <route edges="bottom-approaching closed-lane remerging-lane left-exit"/>
    </vehicle>
    <vehicle id="L2-AV-56" type="L2-AV-Left-" depart="1064.00">
        <route edges="left-long-approaching preparation"/>
    </vehicle>
    <vehicle id="L2-AV-57" type="L2-AV-" depart="1083.00">
        <route edges="bottom-approaching right-exit"/>
    </vehicle>
    <vehicle id="L2-AV-58" type="L2-AV-" depart="1102.00">
        <route edges="top-approaching closed-lane remerging-lane left-exit"/>
    </vehicle>
    <vehicle id="L2-AV-59" type="L2-AV-" depart="1121.00">
        <route edges="top-approaching closed-lane remerging-lane left-exit"/>
    </vehicle>
    <vehicle id="L2-AV-60" type="L2-AV-" depart="1140.00">
        <route edges="bottom-approaching closed-lane remerging-lane left-exit"/>
    </vehicle>
    <vehicle id="L2-AV-61" type="L2-AV-" depart="1159.00">
        <route edges="bottom-approaching closed-lane remerging-lane left-exit"/>
    </vehicle>
    <vehicle id="L2-AV-64" type="L2-AV-" depart="1216.00">
        <route edges="bottom-approaching closed-lane remerging-lane left-exit"/>
    </vehicle>
    <vehicle id="L2-AV-66" type="L2-AV-" depart="1254.00">
        <route edges="bottom-approaching top-exit"/>
    </vehicle>
    <vehicle id="L2-AV-68" type="L2-AV-" depart="1292.00">
        <route edges="top-approaching right-exit"/>
    </vehicle>
    <vehicle id="L2-AV-69" type="L2-AV-" depart="1311.00">
        <route edges="top-approaching closed-lane remerging-lane left-exit"/>
    </vehicle>
    <vehicle id="L2-AV-70" type="L2-AV-" depart="1330.00">
        <route edges="top-approaching right-exit"/>
    </vehicle>
    <vehicle id="L2-AV-71" type="L2-AV-" depart="1349.00">
        <route edges="top-approaching right-exit"/>
    </vehicle>
    <vehicle id="L2-AV-72" type="L2-AV-Right-" depart="1368.00">
        <route edges="left-long-approaching preparation left-short-approaching bottom-exit"/>
    </vehicle>
    <vehicle id="L2-AV-73" type="L2-AV-" depart="1387.00">
        <route edges="bottom-approaching top-exit"/>
    </vehicle>
    <vehicle id="L2-AV-75" type="L2-AV-" depart="1425.00">
        <route edges="left-long-approaching preparation left-short-approaching right-exit"/>
    </vehicle>
    <vehicle id="L2-AV-76" type="L2-AV-" depart="1444.00">
        <route edges="top-approaching right-exit"/>
    </vehicle>
    <vehicle id="L2-AV-77" type="L2-AV-" depart="1463.00">
        <route edges="top-approaching right-exit"/>
    </vehicle>
    <vehicle id="L2-AV-79" type="L2-AV-Left-" depart="1501.00">
        <route edges="left-long-approaching preparation"/>
    </vehicle>
    <vehicle id="L2-AV-80" type="L2-AV-" depart="1520.00">
        <route edges="top-approaching bottom-exit"/>
    </vehicle>
    <vehicle id="L2-AV-82" type="L2-AV-" depart="1558.00">
        <route edges="right-approaching bottom-exit"/>
    </vehicle>
    <vehicle id="L2-AV-83" type="L2-AV-" depart="1577.00">
        <route edges="top-approaching bottom-exit"/>
    </vehicle>
    <vehicle id="L2-AV-84" type="L2-AV-" depart="1596.00">
        <route edges="top-approaching right-exit"/>
    </vehicle>
    <vehicle id="L2-AV-87" type="L2-AV-" depart="1653.00">
        <route edges="right-approaching top-exit"/>
    </vehicle>
    <vehicle id="L2-AV-89" type="L2-AV-" depart="1691.00">
        <route edges="top-approaching bottom-exit"/>
    </vehicle>
    <vehicle id="L2-AV-90" type="L2-AV-" depart="1710.00">
        <route edges="top-approaching bottom-exit"/>
    </vehicle>
    <vehicle id="L2-AV-92" type="L2-AV-" depart="1748.00">
        <route edges="top-approaching right-exit"/>
    </vehicle>
    <vehicle id="L2-AV-93" type="L2-AV-" depart="1767.00">
        <route edges="top-approaching bottom-exit"/>
    </vehicle>
    <vehicle id="L2-AV-94" type="L2-AV-" depart="1786.00">
        <route edges="right-approaching closed-lane remerging-lane left-exit"/>
    </vehicle>
    <vehicle id="L2-AV-96" type="L2-AV-" depart="1824.00">
        <route edges="left-long-approaching preparation left-short-approaching right-exit"/>
    </vehicle>
    <vehicle id="L2-AV-98" type="L2-AV-" depart="1862.00">
        <route edges="right-approaching closed-lane remerging-lane left-exit"/>
    </vehicle>
    <vehicle id="L2-AV-99" type="L2-AV-" depart="1881.00">
        <route edges="top-approaching right-exit"/>
    </vehicle>
    <vehicle id="L2-AV-100" type="L2-AV-" depart="1900.00">
        <route edges="bottom-approaching closed-lane remerging-lane left-exit"/>
    </vehicle>
    <vehicle id="L2-AV-101" type="L2-AV-" depart="1919.00">
        <route edges="top-approaching right-exit"/>
    </vehicle>
    <vehicle id="L2-AV-102" type="L2-AV-" depart="1938.00">
        <route edges="bottom-approaching top-exit"/>
    </vehicle>
    <vehicle id="L2-AV-103" type="L2-AV-" depart="1957.00">
        <route edges="top-approaching bottom-exit"/>
    </vehicle>
    <vehicle id="L2-AV-104" type="L2-AV-" depart="1976.00">
        <route edges="right-approaching closed-lane remerging-lane left-exit"/>
    </vehicle>
    <vehicle id="L2-AV-105" type="L2-AV-" depart="1995.00">
        <route edges="top-approaching closed-lane remerging-lane left-exit"/>
    </vehicle>
    <vehicle id="L2-AV-106" type="L2-AV-" depart="2014.00">
        <route edges="bottom-approaching closed-lane remerging-lane left-exit"/>
    </vehicle>
    <vehicle id="L2-AV-107" type="L2-AV-" depart="2033.00">
        <route edges="top-approaching bottom-exit"/>
    </vehicle>
    <vehicle id="L2-AV-108" type="L2-AV-" depart="2052.00">
        <route edges="bottom-approaching right-exit"/>
    </vehicle>
    <vehicle id="L2-AV-109" type="L2-AV-" depart="2071.00">
        <route edges="top-approaching right-exit"/>
    </vehicle>
    <vehicle id="L2-AV-110" type="L2-AV-Left-" depart="2090.00">
        <route edges="left-long-approaching preparation"/>
    </vehicle>
    <vehicle id="L2-AV-111" type="L2-AV-" depart="2109.00">
        <route edges="top-approaching bottom-exit"/>
    </vehicle>
    <vehicle id="L2-AV-112" type="L2-AV-" depart="2128.00">
        <route edges="top-approaching bottom-exit"/>
    </vehicle>
    <vehicle id="L2-AV-113" type="L2-AV-Left-" depart="2147.00">
        <route edges="left-long-approaching preparation"/>
    </vehicle>
    <vehicle id="L2-AV-114" type="L2-AV-Left-" depart="2166.00">
        <route edges="left-long-approaching preparation"/>
    </vehicle>
    <vehicle id="L2-AV-115" type="L2-AV-" depart="2185.00">
        <route edges="bottom-approaching top-exit"/>
    </vehicle>
    <vehicle id="L2-AV-118" type="L2-AV-" depart="2242.00">
        <route edges="right-approaching top-exit"/>
    </vehicle>
    <vehicle id="L2-AV-119" type="L2-AV-" depart="2261.00">
        <route edges="right-approaching bottom-exit"/>
    </vehicle>
    <vehicle id="L2-AV-120" type="L2-AV-" depart="2280.00">
        <route edges="left-long-approaching preparation left-short-approaching right-exit"/>
    </vehicle>
    <vehicle id="L2-AV-121" type="L2-AV-" depart="2299.00">
        <route edges="left-long-approaching preparation left-short-approaching right-exit"/>
    </vehicle>
    <vehicle id="L2-AV-122" type="L2-AV-Right-" depart="2318.00">
        <route edges="left-long-approaching preparation left-short-approaching bottom-exit"/>
    </vehicle>
    <vehicle id="L2-AV-123" type="L2-AV-" depart="2337.00">
        <route edges="bottom-approaching top-exit"/>
    </vehicle>
    <vehicle id="L2-AV-124" type="L2-AV-Left-" depart="2356.00">
        <route edges="left-long-approaching preparation"/>
    </vehicle>
    <vehicle id="L2-AV-125" type="L2-AV-" depart="2375.00">
        <route edges="top-approaching right-exit"/>
    </vehicle>
    <vehicle id="L2-AV-127" type="L2-AV-Left-" depart="2413.00">
        <route edges="left-long-approaching preparation"/>
    </vehicle>
    <vehicle id="L2-AV-128" type="L2-AV-Left-" depart="2432.00">
        <route edges="left-long-approaching preparation"/>
    </vehicle>
    <vehicle id="L2-AV-129" type="L2-AV-Left-" depart="2451.00">
        <route edges="left-long-approaching preparation"/>
    </vehicle>
    <vehicle id="L2-AV-130" type="L2-AV-" depart="2470.00">
        <route edges="top-approaching right-exit"/>
    </vehicle>
    <vehicle id="L2-AV-131" type="L2-AV-Right-" depart="2489.00">
        <route edges="left-long-approaching preparation left-short-approaching bottom-exit"/>
    </vehicle>
    <vehicle id="L2-AV-132" type="L2-AV-" depart="2508.00">
        <route edges="top-approaching closed-lane remerging-lane left-exit"/>
    </vehicle>
    <vehicle id="L2-AV-133" type="L2-AV-" depart="2527.00">
        <route edges="right-approaching bottom-exit"/>
    </vehicle>
    <vehicle id="L2-AV-135" type="L2-AV-" depart="2565.00">
        <route edges="top-approaching bottom-exit"/>
    </vehicle>
    <vehicle id="L2-AV-136" type="L2-AV-" depart="2584.00">
        <route edges="top-approaching closed-lane remerging-lane left-exit"/>
    </vehicle>
    <vehicle id="L2-AV-137" type="L2-AV-" depart="2603.00">
        <route edges="right-approaching closed-lane remerging-lane left-exit"/>
    </vehicle>
    <vehicle id="L2-AV-138" type="L2-AV-" depart="2622.00">
        <route edges="right-approaching bottom-exit"/>
    </vehicle>
    <vehicle id="L2-AV-139" type="L2-AV-Left-" depart="2641.00">
        <route edges="left-long-approaching preparation"/>
    </vehicle>
    <vehicle id="L2-AV-140" type="L2-AV-" depart="2660.00">
        <route edges="bottom-approaching right-exit"/>
    </vehicle>
    <vehicle id="L2-AV-145" type="L2-AV-" depart="2755.00">
        <route edges="top-approaching bottom-exit"/>
    </vehicle>
    <vehicle id="L2-AV-146" type="L2-AV-" depart="2774.00">
        <route edges="right-approaching closed-lane remerging-lane left-exit"/>
    </vehicle>
    <vehicle id="L2-AV-147" type="L2-AV-" depart="2793.00">
        <route edges="right-approaching top-exit"/>
    </vehicle>
    <vehicle id="L2-AV-149" type="L2-AV-" depart="2831.00">
        <route edges="bottom-approaching right-exit"/>
    </vehicle>
    <vehicle id="L2-AV-151" type="L2-AV-" depart="2869.00">
        <route edges="right-approaching top-exit"/>
    </vehicle>
    <vehicle id="L2-AV-152" type="L2-AV-Left-" depart="2888.00">
        <route edges="left-long-approaching preparation"/>
    </vehicle>
    <vehicle id="L2-AV-153" type="L2-AV-" depart="2907.00">
        <route edges="left-long-approaching preparation left-short-approaching right-exit"/>
    </vehicle>
    <vehicle id="L2-AV-154" type="L2-AV-" depart="2926.00">
        <route edges="top-approaching right-exit"/>
    </vehicle>
    <vehicle id="L2-AV-155" type="L2-AV-Right-" depart="2945.00">
        <route edges="left-long-approaching preparation left-short-approaching bottom-exit"/>
    </vehicle>
    <vehicle id="L2-AV-156" type="L2-AV-" depart="2964.00">
        <route edges="left-long-approaching preparation left-short-approaching right-exit"/>
    </vehicle>
    <vehicle id="L2-AV-159" type="L2-AV-" depart="3021.00">
        <route edges="top-approaching closed-lane remerging-lane left-exit"/>
    </vehicle>
    <vehicle id="L2-AV-160" type="L2-AV-Right-" depart="3040.00">
        <route edges="left-long-approaching preparation left-short-approaching bottom-exit"/>
    </vehicle>
    <vehicle id="L2-AV-161" type="L2-AV-" depart="3059.00">
        <route edges="bottom-approaching right-exit"/>
    </vehicle>
    <vehicle id="L2-AV-163" type="L2-AV-Left-" depart="3097.00">
        <route edges="left-long-approaching preparation"/>
    </vehicle>
    <vehicle id="L2-AV-164" type="L2-AV-" depart="3116.00">
        <route edges="right-approaching bottom-exit"/>
    </vehicle>
    <vehicle id="L2-AV-165" type="L2-AV-" depart="3135.00">
        <route edges="bottom-approaching top-exit"/>
    </vehicle>
    <vehicle id="L2-AV-167" type="L2-AV-" depart="3173.00">
        <route edges="right-approaching closed-lane remerging-lane left-exit"/>
    </vehicle>
    <vehicle id="L2-AV-168" type="L2-AV-" depart="3192.00">
        <route edges="bottom-approaching closed-lane remerging-lane left-exit"/>
    </vehicle>
    <vehicle id="L2-AV-169" type="L2-AV-" depart="3211.00">
        <route edges="bottom-approaching top-exit"/>
    </vehicle>
    <vehicle id="L2-AV-172" type="L2-AV-Left-" depart="3268.00">
        <route edges="left-long-approaching preparation"/>
    </vehicle>
    <vehicle id="L2-AV-173" type="L2-AV-" depart="3287.00">
        <route edges="bottom-approaching top-exit"/>
    </vehicle>
    <vehicle id="L2-AV-175" type="L2-AV-" depart="3325.00">
        <route edges="top-approaching closed-lane remerging-lane left-exit"/>
    </vehicle>
    <vehicle id="L2-AV-176" type="L2-AV-" depart="3344.00">
        <route edges="right-approaching bottom-exit"/>
    </vehicle>
    <vehicle id="L2-AV-178" type="L2-AV-Right-" depart="3382.00">
        <route edges="left-long-approaching preparation left-short-approaching bottom-exit"/>
    </vehicle>
    <vehicle id="L2-AV-179" type="L2-AV-" depart="3401.00">
        <route edges="bottom-approaching top-exit"/>
    </vehicle>
    <vehicle id="L2-AV-180" type="L2-AV-Left-" depart="3420.00">
        <route edges="left-long-approaching preparation"/>
    </vehicle>
    <vehicle id="L2-AV-182" type="L2-AV-" depart="3458.00">
        <route edges="right-approaching top-exit"/>
    </vehicle>
    <vehicle id="L2-AV-183" type="L2-AV-" depart="3477.00">
        <route edges="top-approaching right-exit"/>
    </vehicle>
    <vehicle id="L2-AV-186" type="L2-AV-Right-" depart="3534.00">
        <route edges="left-long-approaching preparation left-short-approaching bottom-exit"/>
    </vehicle>
    <vehicle id="L2-AV-187" type="L2-AV-" depart="3553.00">
        <route edges="top-approaching closed-lane remerging-lane left-exit"/>
    </vehicle>
    <vehicle id="L2-AV-189" type="L2-AV-" depart="3591.00">
        <route edges="top-approaching closed-lane remerging-lane left-exit"/>
    </vehicle>
</routes>