<?xml version="1.0" ?><!-- generated on 03/25/21 15:08:41 by Eclipse SUMO duarouter Version 1.8.0
<configuration xmlns:xsi="http://www.w3.org/2001/XMLSchema-instance" xsi:noNamespaceSchemaLocation="http://sumo.dlr.de/xsd/duarouterConfiguration.xsd">

    <input>
        <net-file value="Roadworks/RoadworksIntersection.net.xml"/>
        <route-files value="trips.trips.xml"/>
    </input>

    <output>
        <output-file value="Roadworks/BaselinePenetration1/Route-Files/L4-AV-Route.rou.xml"/>
        <alternatives-output value="Roadworks/BaselinePenetration1/Route-Files/L4-AV-Route.rou.alt.xml"/>
    </output>

    <time>
        <begin value="0"/>
        <end value="3600"/>
    </time>

    <report>
        <no-warnings value="true"/>
        <ignore-errors value="true"/>
        <no-step-log value="true"/>
    </report>

</configuration>
--><routes xmlns:xsi="http://www.w3.org/2001/XMLSchema-instance" xsi:noNamespaceSchemaLocation="http://sumo.dlr.de/xsd/routes_file.xsd">
    <vehicle id="L4-AV-2" type="L4-AV-" depart="16.80">
        <route edges="right-approaching top-exit"/>
    </vehicle>
    <vehicle id="L4-AV-3" type="L4-AV-" depart="25.20">
        <route edges="bottom-approaching closed-lane remerging-lane left-exit"/>
    </vehicle>
    <vehicle id="L4-AV-4" type="L4-AV-" depart="33.60">
        <route edges="top-approaching right-exit"/>
    </vehicle>
    <vehicle id="L4-AV-5" type="L4-AV-" depart="42.00">
        <route edges="top-approaching bottom-exit"/>
    </vehicle>
    <vehicle id="L4-AV-6" type="L4-AV-Right-" depart="50.40">
        <route edges="left-long-approaching preparation left-short-approaching bottom-exit"/>
    </vehicle>
    <vehicle id="L4-AV-9" type="L4-AV-Left-" depart="75.60">
        <route edges="left-long-approaching preparation"/>
    </vehicle>
    <vehicle id="L4-AV-10" type="L4-AV-" depart="84.00">
        <route edges="top-approaching bottom-exit"/>
    </vehicle>
    <vehicle id="L4-AV-11" type="L4-AV-" depart="92.40">
        <route edges="top-approaching bottom-exit"/>
    </vehicle>
    <vehicle id="L4-AV-12" type="L4-AV-" depart="100.80">
        <route edges="right-approaching bottom-exit"/>
    </vehicle>
    <vehicle id="L4-AV-13" type="L4-AV-" depart="109.20">
        <route edges="bottom-approaching top-exit"/>
    </vehicle>
    <vehicle id="L4-AV-16" type="L4-AV-Left-" depart="134.40">
        <route edges="left-long-approaching preparation"/>
    </vehicle>
    <vehicle id="L4-AV-18" type="L4-AV-" depart="151.20">
        <route edges="bottom-approaching top-exit"/>
    </vehicle>
    <vehicle id="L4-AV-19" type="L4-AV-" depart="159.60">
        <route edges="right-approaching top-exit"/>
    </vehicle>
    <vehicle id="L4-AV-20" type="L4-AV-" depart="168.00">
        <route edges="top-approaching closed-lane remerging-lane left-exit"/>
    </vehicle>
    <vehicle id="L4-AV-21" type="L4-AV-Right-" depart="176.40">
        <route edges="left-long-approaching preparation left-short-approaching bottom-exit"/>
    </vehicle>
    <vehicle id="L4-AV-23" type="L4-AV-" depart="193.20">
        <route edges="left-long-approaching preparation left-short-approaching right-exit"/>
    </vehicle>
    <vehicle id="L4-AV-24" type="L4-AV-" depart="201.60">
        <route edges="bottom-approaching right-exit"/>
    </vehicle>
    <vehicle id="L4-AV-26" type="L4-AV-" depart="218.40">
        <route edges="top-approaching closed-lane remerging-lane left-exit"/>
    </vehicle>
    <vehicle id="L4-AV-28" type="L4-AV-" depart="235.20">
        <route edges="right-approaching bottom-exit"/>
    </vehicle>
    <vehicle id="L4-AV-29" type="L4-AV-" depart="243.60">
        <route edges="top-approaching bottom-exit"/>
    </vehicle>
    <vehicle id="L4-AV-30" type="L4-AV-" depart="252.00">
        <route edges="right-approaching top-exit"/>
    </vehicle>
    <vehicle id="L4-AV-31" type="L4-AV-" depart="260.40">
        <route edges="bottom-approaching top-exit"/>
    </vehicle>
    <vehicle id="L4-AV-32" type="L4-AV-" depart="268.80">
        <route edges="left-long-approaching preparation left-short-approaching right-exit"/>
    </vehicle>
    <vehicle id="L4-AV-34" type="L4-AV-" depart="285.60">
        <route edges="bottom-approaching top-exit"/>
    </vehicle>
    <vehicle id="L4-AV-35" type="L4-AV-" depart="294.00">
        <route edges="bottom-approaching top-exit"/>
    </vehicle>
    <vehicle id="L4-AV-38" type="L4-AV-" depart="319.20">
        <route edges="right-approaching top-exit"/>
    </vehicle>
    <vehicle id="L4-AV-39" type="L4-AV-" depart="327.60">
        <route edges="bottom-approaching right-exit"/>
    </vehicle>
    <vehicle id="L4-AV-41" type="L4-AV-" depart="344.40">
        <route edges="bottom-approaching top-exit"/>
    </vehicle>
    <vehicle id="L4-AV-42" type="L4-AV-" depart="352.80">
        <route edges="bottom-approaching closed-lane remerging-lane left-exit"/>
    </vehicle>
    <vehicle id="L4-AV-43" type="L4-AV-" depart="361.20">
        <route edges="right-approaching top-exit"/>
    </vehicle>
    <vehicle id="L4-AV-44" type="L4-AV-Left-" depart="369.60">
        <route edges="left-long-approaching preparation"/>
    </vehicle>
    <vehicle id="L4-AV-45" type="L4-AV-" depart="378.00">
        <route edges="right-approaching closed-lane remerging-lane left-exit"/>
    </vehicle>
    <vehicle id="L4-AV-46" type="L4-AV-Right-" depart="386.40">
        <route edges="left-long-approaching preparation left-short-approaching bottom-exit"/>
    </vehicle>
    <vehicle id="L4-AV-48" type="L4-AV-" depart="403.20">
        <route edges="right-approaching top-exit"/>
    </vehicle>
    <vehicle id="L4-AV-50" type="L4-AV-" depart="420.00">
        <route edges="top-approaching right-exit"/>
    </vehicle>
    <vehicle id="L4-AV-51" type="L4-AV-Right-" depart="428.40">
        <route edges="left-long-approaching preparation left-short-approaching bottom-exit"/>
    </vehicle>
    <vehicle id="L4-AV-52" type="L4-AV-" depart="436.80">
        <route edges="right-approaching top-exit"/>
    </vehicle>
    <vehicle id="L4-AV-54" type="L4-AV-" depart="453.60">
        <route edges="bottom-approaching top-exit"/>
    </vehicle>
    <vehicle id="L4-AV-55" type="L4-AV-" depart="462.00">
        <route edges="bottom-approaching closed-lane remerging-lane left-exit"/>
    </vehicle>
    <vehicle id="L4-AV-56" type="L4-AV-" depart="470.40">
        <route edges="top-approaching bottom-exit"/>
    </vehicle>
    <vehicle id="L4-AV-57" type="L4-AV-" depart="478.80">
        <route edges="right-approaching top-exit"/>
    </vehicle>
    <vehicle id="L4-AV-58" type="L4-AV-" depart="487.20">
        <route edges="right-approaching top-exit"/>
    </vehicle>
    <vehicle id="L4-AV-59" type="L4-AV-" depart="495.60">
        <route edges="bottom-approaching closed-lane remerging-lane left-exit"/>
    </vehicle>
    <vehicle id="L4-AV-60" type="L4-AV-" depart="504.00">
        <route edges="bottom-approaching top-exit"/>
    </vehicle>
    <vehicle id="L4-AV-63" type="L4-AV-" depart="529.20">
        <route edges="top-approaching closed-lane remerging-lane left-exit"/>
    </vehicle>
    <vehicle id="L4-AV-64" type="L4-AV-" depart="537.60">
        <route edges="left-long-approaching preparation left-short-approaching right-exit"/>
    </vehicle>
    <vehicle id="L4-AV-66" type="L4-AV-Right-" depart="554.40">
        <route edges="left-long-approaching preparation left-short-approaching bottom-exit"/>
    </vehicle>
    <vehicle id="L4-AV-67" type="L4-AV-Left-" depart="562.80">
        <route edges="left-long-approaching preparation"/>
    </vehicle>
    <vehicle id="L4-AV-68" type="L4-AV-" depart="571.20">
        <route edges="top-approaching right-exit"/>
    </vehicle>
    <vehicle id="L4-AV-70" type="L4-AV-" depart="588.00">
        <route edges="bottom-approaching closed-lane remerging-lane left-exit"/>
    </vehicle>
    <vehicle id="L4-AV-72" type="L4-AV-Left-" depart="604.80">
        <route edges="left-long-approaching preparation"/>
    </vehicle>
    <vehicle id="L4-AV-73" type="L4-AV-" depart="613.20">
        <route edges="top-approaching right-exit"/>
    </vehicle>
    <vehicle id="L4-AV-74" type="L4-AV-" depart="621.60">
        <route edges="right-approaching top-exit"/>
    </vehicle>
    <vehicle id="L4-AV-75" type="L4-AV-" depart="630.00">
        <route edges="left-long-approaching preparation left-short-approaching right-exit"/>
    </vehicle>
    <vehicle id="L4-AV-77" type="L4-AV-" depart="646.80">
        <route edges="top-approaching right-exit"/>
    </vehicle>
    <vehicle id="L4-AV-78" type="L4-AV-Left-" depart="655.20">
        <route edges="left-long-approaching preparation"/>
    </vehicle>
    <vehicle id="L4-AV-80" type="L4-AV-" depart="672.00">
        <route edges="bottom-approaching right-exit"/>
    </vehicle>
    <vehicle id="L4-AV-81" type="L4-AV-" depart="680.40">
        <route edges="left-long-approaching preparation left-short-approaching right-exit"/>
    </vehicle>
    <vehicle id="L4-AV-82" type="L4-AV-Left-" depart="688.80">
        <route edges="left-long-approaching preparation"/>
    </vehicle>
    <vehicle id="L4-AV-83" type="L4-AV-" depart="697.20">
        <route edges="right-approaching top-exit"/>
    </vehicle>
    <vehicle id="L4-AV-84" type="L4-AV-" depart="705.60">
        <route edges="left-long-approaching preparation left-short-approaching right-exit"/>
    </vehicle>
    <vehicle id="L4-AV-85" type="L4-AV-" depart="714.00">
        <route edges="right-approaching top-exit"/>
    </vehicle>
    <vehicle id="L4-AV-86" type="L4-AV-Left-" depart="722.40">
        <route edges="left-long-approaching preparation"/>
    </vehicle>
    <vehicle id="L4-AV-87" type="L4-AV-" depart="730.80">
        <route edges="top-approaching right-exit"/>
    </vehicle>
    <vehicle id="L4-AV-90" type="L4-AV-" depart="756.00">
        <route edges="bottom-approaching top-exit"/>
    </vehicle>
    <vehicle id="L4-AV-91" type="L4-AV-" depart="764.40">
        <route edges="top-approaching closed-lane remerging-lane left-exit"/>
    </vehicle>
    <vehicle id="L4-AV-93" type="L4-AV-" depart="781.20">
        <route edges="right-approaching bottom-exit"/>
    </vehicle>
    <vehicle id="L4-AV-94" type="L4-AV-" depart="789.60">
        <route edges="top-approaching right-exit"/>
    </vehicle>
    <vehicle id="L4-AV-95" type="L4-AV-" depart="798.00">
        <route edges="right-approaching closed-lane remerging-lane left-exit"/>
    </vehicle>
    <vehicle id="L4-AV-96" type="L4-AV-" depart="806.40">
        <route edges="right-approaching top-exit"/>
    </vehicle>
    <vehicle id="L4-AV-99" type="L4-AV-" depart="831.60">
        <route edges="left-long-approaching preparation left-short-approaching right-exit"/>
    </vehicle>
    <vehicle id="L4-AV-100" type="L4-AV-" depart="840.00">
        <route edges="bottom-approaching right-exit"/>
    </vehicle>
    <vehicle id="L4-AV-101" type="L4-AV-" depart="848.40">
        <route edges="right-approaching bottom-exit"/>
    </vehicle>
    <vehicle id="L4-AV-102" type="L4-AV-Right-" depart="856.80">
        <route edges="left-long-approaching preparation left-short-approaching bottom-exit"/>
    </vehicle>
    <vehicle id="L4-AV-104" type="L4-AV-Right-" depart="873.60">
        <route edges="left-long-approaching preparation left-short-approaching bottom-exit"/>
    </vehicle>
    <vehicle id="L4-AV-108" type="L4-AV-" depart="907.20">
        <route edges="bottom-approaching top-exit"/>
    </vehicle>
    <vehicle id="L4-AV-109" type="L4-AV-" depart="915.60">
        <route edges="bottom-approaching closed-lane remerging-lane left-exit"/>
    </vehicle>
    <vehicle id="L4-AV-111" type="L4-AV-" depart="932.40">
        <route edges="bottom-approaching top-exit"/>
    </vehicle>
    <vehicle id="L4-AV-112" type="L4-AV-Right-" depart="940.80">
        <route edges="left-long-approaching preparation left-short-approaching bottom-exit"/>
    </vehicle>
    <vehicle id="L4-AV-113" type="L4-AV-" depart="949.20">
        <route edges="right-approaching bottom-exit"/>
    </vehicle>
    <vehicle id="L4-AV-114" type="L4-AV-" depart="957.60">
        <route edges="right-approaching closed-lane remerging-lane left-exit"/>
    </vehicle>
    <vehicle id="L4-AV-115" type="L4-AV-" depart="966.00">
        <route edges="right-approaching top-exit"/>
    </vehicle>
    <vehicle id="L4-AV-116" type="L4-AV-" depart="974.40">
        <route edges="top-approaching closed-lane remerging-lane left-exit"/>
    </vehicle>
    <vehicle id="L4-AV-117" type="L4-AV-" depart="982.80">
        <route edges="top-approaching right-exit"/>
    </vehicle>
    <vehicle id="L4-AV-118" type="L4-AV-Right-" depart="991.20">
        <route edges="left-long-approaching preparation left-short-approaching bottom-exit"/>
    </vehicle>
    <vehicle id="L4-AV-121" type="L4-AV-" depart="1016.40">
        <route edges="right-approaching closed-lane remerging-lane left-exit"/>
    </vehicle>
    <vehicle id="L4-AV-122" type="L4-AV-" depart="1024.80">
        <route edges="top-approaching bottom-exit"/>
    </vehicle>
    <vehicle id="L4-AV-123" type="L4-AV-" depart="1033.20">
        <route edges="bottom-approaching right-exit"/>
    </vehicle>
    <vehicle id="L4-AV-124" type="L4-AV-" depart="1041.60">
        <route edges="right-approaching bottom-exit"/>
    </vehicle>
    <vehicle id="L4-AV-125" type="L4-AV-" depart="1050.00">
        <route edges="right-approaching top-exit"/>
    </vehicle>
    <vehicle id="L4-AV-127" type="L4-AV-" depart="1066.80">
        <route edges="bottom-approaching closed-lane remerging-lane left-exit"/>
    </vehicle>
    <vehicle id="L4-AV-128" type="L4-AV-" depart="1075.20">
        <route edges="top-approaching closed-lane remerging-lane left-exit"/>
    </vehicle>
    <vehicle id="L4-AV-130" type="L4-AV-" depart="1092.00">
        <route edges="right-approaching closed-lane remerging-lane left-exit"/>
    </vehicle>
    <vehicle id="L4-AV-131" type="L4-AV-" depart="1100.40">
        <route edges="top-approaching closed-lane remerging-lane left-exit"/>
    </vehicle>
    <vehicle id="L4-AV-133" type="L4-AV-" depart="1117.20">
        <route edges="top-approaching closed-lane remerging-lane left-exit"/>
    </vehicle>
    <vehicle id="L4-AV-135" type="L4-AV-" depart="1134.00">
        <route edges="bottom-approaching right-exit"/>
    </vehicle>
    <vehicle id="L4-AV-138" type="L4-AV-" depart="1159.20">
        <route edges="bottom-approaching right-exit"/>
    </vehicle>
    <vehicle id="L4-AV-139" type="L4-AV-Left-" depart="1167.60">
        <route edges="left-long-approaching preparation"/>
    </vehicle>
    <vehicle id="L4-AV-140" type="L4-AV-" depart="1176.00">
        <route edges="top-approaching bottom-exit"/>
    </vehicle>
    <vehicle id="L4-AV-141" type="L4-AV-Right-" depart="1184.40">
        <route edges="left-long-approaching preparation left-short-approaching bottom-exit"/>
    </vehicle>
    <vehicle id="L4-AV-142" type="L4-AV-" depart="1192.80">
        <route edges="top-approaching closed-lane remerging-lane left-exit"/>
    </vehicle>
    <vehicle id="L4-AV-143" type="L4-AV-" depart="1201.20">
        <route edges="right-approaching closed-lane remerging-lane left-exit"/>
    </vehicle>
    <vehicle id="L4-AV-145" type="L4-AV-" depart="1218.00">
        <route edges="right-approaching bottom-exit"/>
    </vehicle>
    <vehicle id="L4-AV-146" type="L4-AV-" depart="1226.40">
        <route edges="top-approaching closed-lane remerging-lane left-exit"/>
    </vehicle>
    <vehicle id="L4-AV-147" type="L4-AV-" depart="1234.80">
        <route edges="right-approaching closed-lane remerging-lane left-exit"/>
    </vehicle>
    <vehicle id="L4-AV-148" type="L4-AV-" depart="1243.20">
        <route edges="left-long-approaching preparation left-short-approaching right-exit"/>
    </vehicle>
    <vehicle id="L4-AV-151" type="L4-AV-" depart="1268.40">
        <route edges="bottom-approaching closed-lane remerging-lane left-exit"/>
    </vehicle>
    <vehicle id="L4-AV-152" type="L4-AV-Left-" depart="1276.80">
        <route edges="left-long-approaching preparation"/>
    </vehicle>
    <vehicle id="L4-AV-153" type="L4-AV-" depart="1285.20">
        <route edges="top-approaching right-exit"/>
    </vehicle>
    <vehicle id="L4-AV-154" type="L4-AV-" depart="1293.60">
        <route edges="bottom-approaching top-exit"/>
    </vehicle>
    <vehicle id="L4-AV-155" type="L4-AV-" depart="1302.00">
        <route edges="left-long-approaching preparation left-short-approaching right-exit"/>
    </vehicle>
    <vehicle id="L4-AV-157" type="L4-AV-Left-" depart="1318.80">
        <route edges="left-long-approaching preparation"/>
    </vehicle>
    <vehicle id="L4-AV-159" type="L4-AV-" depart="1335.60">
        <route edges="top-approaching bottom-exit"/>
    </vehicle>
    <vehicle id="L4-AV-160" type="L4-AV-Left-" depart="1344.00">
        <route edges="left-long-approaching preparation"/>
    </vehicle>
    <vehicle id="L4-AV-161" type="L4-AV-" depart="1352.40">
        <route edges="bottom-approaching top-exit"/>
    </vehicle>
    <vehicle id="L4-AV-162" type="L4-AV-" depart="1360.80">
        <route edges="right-approaching closed-lane remerging-lane left-exit"/>
    </vehicle>
    <vehicle id="L4-AV-163" type="L4-AV-Left-" depart="1369.20">
        <route edges="left-long-approaching preparation"/>
    </vehicle>
    <vehicle id="L4-AV-164" type="L4-AV-" depart="1377.60">
        <route edges="top-approaching bottom-exit"/>
    </vehicle>
    <vehicle id="L4-AV-165" type="L4-AV-" depart="1386.00">
        <route edges="left-long-approaching preparation left-short-approaching right-exit"/>
    </vehicle>
    <vehicle id="L4-AV-167" type="L4-AV-" depart="1402.80">
        <route edges="bottom-approaching right-exit"/>
    </vehicle>
    <vehicle id="L4-AV-168" type="L4-AV-" depart="1411.20">
        <route edges="top-approaching bottom-exit"/>
    </vehicle>
    <vehicle id="L4-AV-169" type="L4-AV-" depart="1419.60">
        <route edges="bottom-approaching top-exit"/>
    </vehicle>
    <vehicle id="L4-AV-170" type="L4-AV-" depart="1428.00">
        <route edges="top-approaching right-exit"/>
    </vehicle>
    <vehicle id="L4-AV-171" type="L4-AV-" depart="1436.40">
        <route edges="bottom-approaching right-exit"/>
    </vehicle>
    <vehicle id="L4-AV-173" type="L4-AV-" depart="1453.20">
        <route edges="right-approaching bottom-exit"/>
    </vehicle>
    <vehicle id="L4-AV-174" type="L4-AV-" depart="1461.60">
        <route edges="top-approaching bottom-exit"/>
    </vehicle>
    <vehicle id="L4-AV-175" type="L4-AV-" depart="1470.00">
        <route edges="right-approaching top-exit"/>
    </vehicle>
    <vehicle id="L4-AV-176" type="L4-AV-" depart="1478.40">
        <route edges="right-approaching bottom-exit"/>
    </vehicle>
    <vehicle id="L4-AV-177" type="L4-AV-Left-" depart="1486.80">
        <route edges="left-long-approaching preparation"/>
    </vehicle>
    <vehicle id="L4-AV-178" type="L4-AV-" depart="1495.20">
        <route edges="bottom-approaching right-exit"/>
    </vehicle>
    <vehicle id="L4-AV-179" type="L4-AV-Right-" depart="1503.60">
        <route edges="left-long-approaching preparation left-short-approaching bottom-exit"/>
    </vehicle>
    <vehicle id="L4-AV-180" type="L4-AV-" depart="1512.00">
        <route edges="right-approaching bottom-exit"/>
    </vehicle>
    <vehicle id="L4-AV-181" type="L4-AV-" depart="1520.40">
        <route edges="bottom-approaching closed-lane remerging-lane left-exit"/>
    </vehicle>
    <vehicle id="L4-AV-184" type="L4-AV-" depart="1545.60">
        <route edges="top-approaching bottom-exit"/>
    </vehicle>
    <vehicle id="L4-AV-186" type="L4-AV-" depart="1562.40">
        <route edges="right-approaching closed-lane remerging-lane left-exit"/>
    </vehicle>
    <vehicle id="L4-AV-187" type="L4-AV-" depart="1570.80">
        <route edges="top-approaching closed-lane remerging-lane left-exit"/>
    </vehicle>
    <vehicle id="L4-AV-188" type="L4-AV-" depart="1579.20">
        <route edges="bottom-approaching right-exit"/>
    </vehicle>
    <vehicle id="L4-AV-189" type="L4-AV-" depart="1587.60">
        <route edges="bottom-approaching right-exit"/>
    </vehicle>
    <vehicle id="L4-AV-190" type="L4-AV-" depart="1596.00">
        <route edges="right-approaching top-exit"/>
    </vehicle>
    <vehicle id="L4-AV-192" type="L4-AV-" depart="1612.80">
        <route edges="left-long-approaching preparation left-short-approaching right-exit"/>
    </vehicle>
    <vehicle id="L4-AV-193" type="L4-AV-" depart="1621.20">
        <route edges="left-long-approaching preparation left-short-approaching right-exit"/>
    </vehicle>
    <vehicle id="L4-AV-194" type="L4-AV-" depart="1629.60">
        <route edges="right-approaching bottom-exit"/>
    </vehicle>
    <vehicle id="L4-AV-195" type="L4-AV-" depart="1638.00">
        <route edges="bottom-approaching closed-lane remerging-lane left-exit"/>
    </vehicle>
    <vehicle id="L4-AV-196" type="L4-AV-" depart="1646.40">
        <route edges="right-approaching bottom-exit"/>
    </vehicle>
    <vehicle id="L4-AV-198" type="L4-AV-" depart="1663.20">
        <route edges="bottom-approaching right-exit"/>
    </vehicle>
    <vehicle id="L4-AV-200" type="L4-AV-" depart="1680.00">
        <route edges="right-approaching bottom-exit"/>
    </vehicle>
    <vehicle id="L4-AV-201" type="L4-AV-" depart="1688.40">
        <route edges="top-approaching closed-lane remerging-lane left-exit"/>
    </vehicle>
    <vehicle id="L4-AV-202" type="L4-AV-Left-" depart="1696.80">
        <route edges="left-long-approaching preparation"/>
    </vehicle>
    <vehicle id="L4-AV-203" type="L4-AV-" depart="1705.20">
        <route edges="bottom-approaching right-exit"/>
    </vehicle>
    <vehicle id="L4-AV-205" type="L4-AV-" depart="1722.00">
        <route edges="top-approaching right-exit"/>
    </vehicle>
    <vehicle id="L4-AV-207" type="L4-AV-" depart="1738.80">
        <route edges="top-approaching right-exit"/>
    </vehicle>
    <vehicle id="L4-AV-208" type="L4-AV-" depart="1747.20">
        <route edges="top-approaching bottom-exit"/>
    </vehicle>
    <vehicle id="L4-AV-209" type="L4-AV-" depart="1755.60">
        <route edges="right-approaching closed-lane remerging-lane left-exit"/>
    </vehicle>
    <vehicle id="L4-AV-210" type="L4-AV-" depart="1764.00">
        <route edges="bottom-approaching closed-lane remerging-lane left-exit"/>
    </vehicle>
    <vehicle id="L4-AV-211" type="L4-AV-" depart="1772.40">
        <route edges="right-approaching closed-lane remerging-lane left-exit"/>
    </vehicle>
    <vehicle id="L4-AV-212" type="L4-AV-Right-" depart="1780.80">
        <route edges="left-long-approaching preparation left-short-approaching bottom-exit"/>
    </vehicle>
    <vehicle id="L4-AV-213" type="L4-AV-" depart="1789.20">
        <route edges="top-approaching right-exit"/>
    </vehicle>
    <vehicle id="L4-AV-214" type="L4-AV-" depart="1797.60">
        <route edges="top-approaching closed-lane remerging-lane left-exit"/>
    </vehicle>
    <vehicle id="L4-AV-215" type="L4-AV-" depart="1806.00">
        <route edges="top-approaching right-exit"/>
    </vehicle>
    <vehicle id="L4-AV-217" type="L4-AV-" depart="1822.80">
        <route edges="right-approaching closed-lane remerging-lane left-exit"/>
    </vehicle>
    <vehicle id="L4-AV-220" type="L4-AV-" depart="1848.00">
        <route edges="top-approaching closed-lane remerging-lane left-exit"/>
    </vehicle>
    <vehicle id="L4-AV-221" type="L4-AV-" depart="1856.40">
        <route edges="top-approaching bottom-exit"/>
    </vehicle>
    <vehicle id="L4-AV-222" type="L4-AV-Left-" depart="1864.80">
        <route edges="left-long-approaching preparation"/>
    </vehicle>
    <vehicle id="L4-AV-223" type="L4-AV-" depart="1873.20">
        <route edges="right-approaching closed-lane remerging-lane left-exit"/>
    </vehicle>
    <vehicle id="L4-AV-224" type="L4-AV-Right-" depart="1881.60">
        <route edges="left-long-approaching preparation left-short-approaching bottom-exit"/>
    </vehicle>
    <vehicle id="L4-AV-227" type="L4-AV-" depart="1906.80">
        <route edges="top-approaching bottom-exit"/>
    </vehicle>
    <vehicle id="L4-AV-229" type="L4-AV-" depart="1923.60">
        <route edges="bottom-approaching closed-lane remerging-lane left-exit"/>
    </vehicle>
    <vehicle id="L4-AV-230" type="L4-AV-" depart="1932.00">
        <route edges="bottom-approaching closed-lane remerging-lane left-exit"/>
    </vehicle>
    <vehicle id="L4-AV-231" type="L4-AV-" depart="1940.40">
        <route edges="bottom-approaching top-exit"/>
    </vehicle>
    <vehicle id="L4-AV-232" type="L4-AV-Left-" depart="1948.80">
        <route edges="left-long-approaching preparation"/>
    </vehicle>
    <vehicle id="L4-AV-234" type="L4-AV-Left-" depart="1965.60">
        <route edges="left-long-approaching preparation"/>
    </vehicle>
    <vehicle id="L4-AV-235" type="L4-AV-" depart="1974.00">
        <route edges="bottom-approaching right-exit"/>
    </vehicle>
    <vehicle id="L4-AV-236" type="L4-AV-" depart="1982.40">
        <route edges="left-long-approaching preparation left-short-approaching right-exit"/>
    </vehicle>
    <vehicle id="L4-AV-237" type="L4-AV-" depart="1990.80">
        <route edges="right-approaching bottom-exit"/>
    </vehicle>
    <vehicle id="L4-AV-240" type="L4-AV-Left-" depart="2016.00">
        <route edges="left-long-approaching preparation"/>
    </vehicle>
    <vehicle id="L4-AV-245" type="L4-AV-" depart="2058.00">
        <route edges="right-approaching top-exit"/>
    </vehicle>
    <vehicle id="L4-AV-246" type="L4-AV-" depart="2066.40">
        <route edges="right-approaching closed-lane remerging-lane left-exit"/>
    </vehicle>
    <vehicle id="L4-AV-247" type="L4-AV-" depart="2074.80">
        <route edges="top-approaching bottom-exit"/>
    </vehicle>
    <vehicle id="L4-AV-248" type="L4-AV-" depart="2083.20">
        <route edges="bottom-approaching top-exit"/>
    </vehicle>
    <vehicle id="L4-AV-249" type="L4-AV-Right-" depart="2091.60">
        <route edges="left-long-approaching preparation left-short-approaching bottom-exit"/>
    </vehicle>
    <vehicle id="L4-AV-250" type="L4-AV-" depart="2100.00">
        <route edges="right-approaching top-exit"/>
    </vehicle>
    <vehicle id="L4-AV-251" type="L4-AV-" depart="2108.40">
        <route edges="right-approaching closed-lane remerging-lane left-exit"/>
    </vehicle>
    <vehicle id="L4-AV-253" type="L4-AV-" depart="2125.20">
        <route edges="top-approaching closed-lane remerging-lane left-exit"/>
    </vehicle>
    <vehicle id="L4-AV-254" type="L4-AV-" depart="2133.60">
        <route edges="top-approaching bottom-exit"/>
    </vehicle>
    <vehicle id="L4-AV-256" type="L4-AV-Right-" depart="2150.40">
        <route edges="left-long-approaching preparation left-short-approaching bottom-exit"/>
    </vehicle>
    <vehicle id="L4-AV-258" type="L4-AV-Right-" depart="2167.20">
        <route edges="left-long-approaching preparation left-short-approaching bottom-exit"/>
    </vehicle>
    <vehicle id="L4-AV-259" type="L4-AV-" depart="2175.60">
        <route edges="bottom-approaching top-exit"/>
    </vehicle>
    <vehicle id="L4-AV-260" type="L4-AV-" depart="2184.00">
        <route edges="bottom-approaching right-exit"/>
    </vehicle>
    <vehicle id="L4-AV-261" type="L4-AV-" depart="2192.40">
        <route edges="left-long-approaching preparation left-short-approaching right-exit"/>
    </vehicle>
    <vehicle id="L4-AV-262" type="L4-AV-" depart="2200.80">
        <route edges="bottom-approaching closed-lane remerging-lane left-exit"/>
    </vehicle>
    <vehicle id="L4-AV-263" type="L4-AV-" depart="2209.20">
        <route edges="bottom-approaching right-exit"/>
    </vehicle>
    <vehicle id="L4-AV-264" type="L4-AV-" depart="2217.60">
        <route edges="top-approaching right-exit"/>
    </vehicle>
    <vehicle id="L4-AV-265" type="L4-AV-" depart="2226.00">
        <route edges="top-approaching bottom-exit"/>
    </vehicle>
    <vehicle id="L4-AV-266" type="L4-AV-" depart="2234.40">
        <route edges="bottom-approaching right-exit"/>
    </vehicle>
    <vehicle id="L4-AV-267" type="L4-AV-" depart="2242.80">
        <route edges="left-long-approaching preparation left-short-approaching right-exit"/>
    </vehicle>
    <vehicle id="L4-AV-268" type="L4-AV-" depart="2251.20">
        <route edges="left-long-approaching preparation left-short-approaching right-exit"/>
    </vehicle>
    <vehicle id="L4-AV-269" type="L4-AV-" depart="2259.60">
        <route edges="right-approaching top-exit"/>
    </vehicle>
    <vehicle id="L4-AV-271" type="L4-AV-" depart="2276.40">
        <route edges="top-approaching bottom-exit"/>
    </vehicle>
    <vehicle id="L4-AV-272" type="L4-AV-" depart="2284.80">
        <route edges="bottom-approaching closed-lane remerging-lane left-exit"/>
    </vehicle>
    <vehicle id="L4-AV-273" type="L4-AV-" depart="2293.20">
        <route edges="bottom-approaching top-exit"/>
    </vehicle>
    <vehicle id="L4-AV-274" type="L4-AV-" depart="2301.60">
        <route edges="top-approaching closed-lane remerging-lane left-exit"/>
    </vehicle>
    <vehicle id="L4-AV-277" type="L4-AV-" depart="2326.80">
        <route edges="left-long-approaching preparation left-short-approaching right-exit"/>
    </vehicle>
    <vehicle id="L4-AV-279" type="L4-AV-" depart="2343.60">
        <route edges="right-approaching bottom-exit"/>
    </vehicle>
    <vehicle id="L4-AV-280" type="L4-AV-" depart="2352.00">
        <route edges="bottom-approaching closed-lane remerging-lane left-exit"/>
    </vehicle>
    <vehicle id="L4-AV-281" type="L4-AV-Right-" depart="2360.40">