<?xml version="1.0" ?><!-- generated on 03/30/21 19:22:26 by Eclipse SUMO duarouter Version 1.8.0
<configuration xmlns:xsi="http://www.w3.org/2001/XMLSchema-instance" xsi:noNamespaceSchemaLocation="http://sumo.dlr.de/xsd/duarouterConfiguration.xsd">

    <input>
        <net-file value="Roadworks/RoadworksIntersection.net.xml"/>
        <route-files value="trips.trips.xml"/>
    </input>

    <output>
        <output-file value="Roadworks/BaselinePenetration1/Route-Files/L4-AV-Route.rou.xml"/>
        <alternatives-output value="Roadworks/BaselinePenetration1/Route-Files/L4-AV-Route.rou.alt.xml"/>
    </output>

    <time>
        <begin value="0"/>
        <end value="3600"/>
    </time>

    <report>
        <no-warnings value="true"/>
        <ignore-errors value="true"/>
        <no-step-log value="true"/>
    </report>

</configuration>
--><routes xmlns:xsi="http://www.w3.org/2001/XMLSchema-instance" xsi:noNamespaceSchemaLocation="http://sumo.dlr.de/xsd/routes_file.xsd">
    <vehicle id="L4-AV-0" type="L4-AV-" depart="0.00">
        <route edges="bottom-approaching top-exit"/>
    </vehicle>
    <vehicle id="L4-AV-1" type="L4-AV-" depart="19.00">
        <route edges="top-approaching closed-lane remerging-lane left-exit"/>
    </vehicle>
    <vehicle id="L4-AV-3" type="L4-AV-" depart="57.00">
        <route edges="right-approaching top-exit"/>
    </vehicle>
    <vehicle id="L4-AV-5" type="L4-AV-" depart="95.00">
        <route edges="top-approaching closed-lane remerging-lane left-exit"/>
    </vehicle>
    <vehicle id="L4-AV-6" type="L4-AV-" depart="114.00">
        <route edges="top-approaching bottom-exit"/>
    </vehicle>
    <vehicle id="L4-AV-7" type="L4-AV-" depart="133.00">
        <route edges="left-long-approaching preparation left-short-approaching right-exit"/>
    </vehicle>
    <vehicle id="L4-AV-8" type="L4-AV-" depart="152.00">
        <route edges="bottom-approaching top-exit"/>
    </vehicle>
    <vehicle id="L4-AV-9" type="L4-AV-" depart="171.00">
        <route edges="top-approaching bottom-exit"/>
    </vehicle>
    <vehicle id="L4-AV-10" type="L4-AV-" depart="190.00">
        <route edges="bottom-approaching right-exit"/>
    </vehicle>
    <vehicle id="L4-AV-11" type="L4-AV-" depart="209.00">
        <route edges="top-approaching closed-lane remerging-lane left-exit"/>
    </vehicle>
    <vehicle id="L4-AV-12" type="L4-AV-" depart="228.00">
        <route edges="bottom-approaching closed-lane remerging-lane left-exit"/>
    </vehicle>
    <vehicle id="L4-AV-16" type="L4-AV-" depart="304.00">
        <route edges="bottom-approaching closed-lane remerging-lane left-exit"/>
    </vehicle>
    <vehicle id="L4-AV-17" type="L4-AV-Right-" depart="323.00">
        <route edges="left-long-approaching preparation left-short-approaching bottom-exit"/>
    </vehicle>
    <vehicle id="L4-AV-18" type="L4-AV-" depart="342.00">
        <route edges="top-approaching right-exit"/>
    </vehicle>
    <vehicle id="L4-AV-19" type="L4-AV-" depart="361.00">
        <route edges="right-approaching bottom-exit"/>
    </vehicle>
    <vehicle id="L4-AV-21" type="L4-AV-" depart="399.00">
        <route edges="bottom-approaching closed-lane remerging-lane left-exit"/>
    </vehicle>
    <vehicle id="L4-AV-23" type="L4-AV-" depart="437.00">
        <route edges="top-approaching closed-lane remerging-lane left-exit"/>
    </vehicle>
    <vehicle id="L4-AV-24" type="L4-AV-" depart="456.00">
        <route edges="top-approaching right-exit"/>
    </vehicle>
    <vehicle id="L4-AV-25" type="L4-AV-" depart="475.00">
        <route edges="left-long-approaching preparation left-short-approaching right-exit"/>
    </vehicle>
    <vehicle id="L4-AV-29" type="L4-AV-" depart="551.00">
        <route edges="top-approaching closed-lane remerging-lane left-exit"/>
    </vehicle>
    <vehicle id="L4-AV-30" type="L4-AV-" depart="570.00">
        <route edges="bottom-approaching right-exit"/>
    </vehicle>
    <vehicle id="L4-AV-33" type="L4-AV-" depart="627.00">
        <route edges="right-approaching top-exit"/>
    </vehicle>
    <vehicle id="L4-AV-34" type="L4-AV-" depart="646.00">
        <route edges="right-approaching closed-lane remerging-lane left-exit"/>
    </vehicle>
    <vehicle id="L4-AV-35" type="L4-AV-Right-" depart="665.00">
        <route edges="left-long-approaching preparation left-short-approaching bottom-exit"/>
    </vehicle>
    <vehicle id="L4-AV-36" type="L4-AV-" depart="684.00">
        <route edges="bottom-approaching right-exit"/>
    </vehicle>
    <vehicle id="L4-AV-37" type="L4-AV-" depart="703.00">
        <route edges="top-approaching right-exit"/>
    </vehicle>
    <vehicle id="L4-AV-38" type="L4-AV-Right-" depart="722.00">
        <route edges="left-long-approaching preparation left-short-approaching bottom-exit"/>
    </vehicle>
    <vehicle id="L4-AV-39" type="L4-AV-Left-" depart="741.00">
        <route edges="left-long-approaching preparation"/>
    </vehicle>
    <vehicle id="L4-AV-40" type="L4-AV-" depart="760.00">
        <route edges="top-approaching right-exit"/>
    </vehicle>
    <vehicle id="L4-AV-41" type="L4-AV-" depart="779.00">
        <route edges="top-approaching bottom-exit"/>
    </vehicle>
    <vehicle id="L4-AV-42" type="L4-AV-" depart="798.00">
        <route edges="right-approaching top-exit"/>
    </vehicle>
    <vehicle id="L4-AV-43" type="L4-AV-" depart="817.00">
        <route edges="right-approaching closed-lane remerging-lane left-exit"/>
    </vehicle>
    <vehicle id="L4-AV-44" type="L4-AV-" depart="836.00">
        <route edges="left-long-approaching preparation left-short-approaching right-exit"/>
    </vehicle>
    <vehicle id="L4-AV-45" type="L4-AV-" depart="855.00">
        <route edges="top-approaching bottom-exit"/>
    </vehicle>
    <vehicle id="L4-AV-47" type="L4-AV-" depart="893.00">
        <route edges="top-approaching right-exit"/>
    </vehicle>
    <vehicle id="L4-AV-48" type="L4-AV-" depart="912.00">
        <route edges="top-approaching right-exit"/>
    </vehicle>
    <vehicle id="L4-AV-49" type="L4-AV-" depart="931.00">
        <route edges="right-approaching closed-lane remerging-lane left-exit"/>
    </vehicle>
    <vehicle id="L4-AV-50" type="L4-AV-" depart="950.00">
        <route edges="bottom-approaching top-exit"/>
    </vehicle>
    <vehicle id="L4-AV-51" type="L4-AV-" depart="969.00">
        <route edges="right-approaching bottom-exit"/>
    </vehicle>
    <vehicle id="L4-AV-52" type="L4-AV-" depart="988.00">
        <route edges="right-approaching closed-lane remerging-lane left-exit"/>
    </vehicle>
    <vehicle id="L4-AV-55" type="L4-AV-" depart="1045.00">
        <route edges="right-approaching closed-lane remerging-lane left-exit"/>
    </vehicle>
    <vehicle id="L4-AV-57" type="L4-AV-" depart="1083.00">
        <route edges="bottom-approaching right-exit"/>
    </vehicle>
    <vehicle id="L4-AV-60" type="L4-AV-Left-" depart="1140.00">
        <route edges="left-long-approaching preparation"/>
    </vehicle>
    <vehicle id="L4-AV-61" type="L4-AV-" depart="1159.00">
        <route edges="right-approaching bottom-exit"/>
    </vehicle>
    <vehicle id="L4-AV-63" type="L4-AV-" depart="1197.00">
        <route edges="top-approaching closed-lane remerging-lane left-exit"/>
    </vehicle>
    <vehicle id="L4-AV-64" type="L4-AV-" depart="1216.00">
        <route edges="bottom-approaching right-exit"/>
    </vehicle>
    <vehicle id="L4-AV-65" type="L4-AV-Right-" depart="1235.00">
        <route edges="left-long-approaching preparation left-short-approaching bottom-exit"/>
    </vehicle>
    <vehicle id="L4-AV-66" type="L4-AV-" depart="1254.00">
        <route edges="bottom-approaching right-exit"/>
    </vehicle>
    <vehicle id="L4-AV-67" type="L4-AV-" depart="1273.00">
        <route edges="bottom-approaching closed-lane remerging-lane left-exit"/>
    </vehicle>
    <vehicle id="L4-AV-68" type="L4-AV-" depart="1292.00">
        <route edges="right-approaching closed-lane remerging-lane left-exit"/>
    </vehicle>
    <vehicle id="L4-AV-70" type="L4-AV-" depart="1330.00">
        <route edges="bottom-approaching closed-lane remerging-lane left-exit"/>
    </vehicle>
    <vehicle id="L4-AV-71" type="L4-AV-Right-" depart="1349.00">
        <route edges="left-long-approaching preparation left-short-approaching bottom-exit"/>
    </vehicle>
    <vehicle id="L4-AV-72" type="L4-AV-" depart="1368.00">
        <route edges="bottom-approaching top-exit"/>
    </vehicle>
    <vehicle id="L4-AV-73" type="L4-AV-" depart="1387.00">
        <route edges="right-approaching bottom-exit"/>
    </vehicle>
    <vehicle id="L4-AV-74" type="L4-AV-" depart="1406.00">
        <route edges="right-approaching top-exit"/>
    </vehicle>
    <vehicle id="L4-AV-76" type="L4-AV-" depart="1444.00">
        <route edges="bottom-approaching right-exit"/>
    </vehicle>
    <vehicle id="L4-AV-77" type="L4-AV-" depart="1463.00">
        <route edges="bottom-approaching right-exit"/>
    </vehicle>
    <vehicle id="L4-AV-79" type="L4-AV-" depart="1501.00">
        <route edges="bottom-approaching top-exit"/>
    </vehicle>
    <vehicle id="L4-AV-80" type="L4-AV-" depart="1520.00">
        <route edges="top-approaching right-exit"/>
    </vehicle>
    <vehicle id="L4-AV-81" type="L4-AV-" depart="1539.00">
        <route edges="bottom-approaching right-exit"/>
    </vehicle>
    <vehicle id="L4-AV-82" type="L4-AV-" depart="1558.00">
        <route edges="left-long-approaching preparation left-short-approaching right-exit"/>
    </vehicle>
    <vehicle id="L4-AV-83" type="L4-AV-" depart="1577.00">
        <route edges="left-long-approaching preparation left-short-approaching right-exit"/>
    </vehicle>
    <vehicle id="L4-AV-84" type="L4-AV-" depart="1596.00">
        <route edges="bottom-approaching closed-lane remerging-lane left-exit"/>
    </vehicle>
    <vehicle id="L4-AV-86" type="L4-AV-Left-" depart="1634.00">
        <route edges="left-long-approaching preparation"/>
    </vehicle>
    <vehicle id="L4-AV-87" type="L4-AV-Left-" depart="1653.00">
        <route edges="left-long-approaching preparation"/>
    </vehicle>
    <vehicle id="L4-AV-88" type="L4-AV-" depart="1672.00">
        <route edges="right-approaching closed-lane remerging-lane left-exit"/>
    </vehicle>
    <vehicle id="L4-AV-89" type="L4-AV-Right-" depart="1691.00">
        <route edges="left-long-approaching preparation left-short-approaching bottom-exit"/>
    </vehicle>
    <vehicle id="L4-AV-90" type="L4-AV-" depart="1710.00">
        <route edges="top-approaching bottom-exit"/>
    </vehicle>
    <vehicle id="L4-AV-92" type="L4-AV-" depart="1748.00">
        <route edges="right-approaching bottom-exit"/>
    </vehicle>
    <vehicle id="L4-AV-96" type="L4-AV-" depart="1824.00">
        <route edges="bottom-approaching right-exit"/>
    </vehicle>
    <vehicle id="L4-AV-97" type="L4-AV-Right-" depart="1843.00">
        <route edges="left-long-approaching preparation left-short-approaching bottom-exit"/>
    </vehicle>
    <vehicle id="L4-AV-98" type="L4-AV-" depart="1862.00">
        <route edges="bottom-approaching right-exit"/>
    </vehicle>
    <vehicle id="L4-AV-99" type="L4-AV-" depart="1881.00">
        <route edges="left-long-approaching preparation left-short-approaching right-exit"/>
    </vehicle>
    <vehicle id="L4-AV-100" type="L4-AV-Left-" depart="1900.00">
        <route edges="left-long-approaching preparation"/>
    </vehicle>
    <vehicle id="L4-AV-101" type="L4-AV-" depart="1919.00">
        <route edges="top-approaching bottom-exit"/>
    </vehicle>
    <vehicle id="L4-AV-102" type="L4-AV-" depart="1938.00">
        <route edges="bottom-approaching closed-lane remerging-lane left-exit"/>
    </vehicle>
    <vehicle id="L4-AV-104" type="L4-AV-Right-" depart="1976.00">
        <route edges="left-long-approaching preparation left-short-approaching bottom-exit"/>
    </vehicle>
    <vehicle id="L4-AV-105" type="L4-AV-" depart="1995.00">
        <route edges="right-approaching top-exit"/>
    </vehicle>
    <vehicle id="L4-AV-106" type="L4-AV-" depart="2014.00">
        <route edges="top-approaching closed-lane remerging-lane left-exit"/>
    </vehicle>
    <vehicle id="L4-AV-107" type="L4-AV-" depart="2033.00">
        <route edges="top-approaching right-exit"/>
    </vehicle>
    <vehicle id="L4-AV-108" type="L4-AV-Left-" depart="2052.00">
        <route edges="left-long-approaching preparation"/>
    </vehicle>
    <vehicle id="L4-AV-109" type="L4-AV-" depart="2071.00">
        <route edges="bottom-approaching right-exit"/>
    </vehicle>
    <vehicle id="L4-AV-111" type="L4-AV-" depart="2109.00">
        <route edges="top-approaching bottom-exit"/>
    </vehicle>
    <vehicle id="L4-AV-112" type="L4-AV-" depart="2128.00">
        <route edges="top-approaching right-exit"/>
    </vehicle>
    <vehicle id="L4-AV-113" type="L4-AV-" depart="2147.00">
        <route edges="top-approaching closed-lane remerging-lane left-exit"/>
    </vehicle>
    <vehicle id="L4-AV-115" type="L4-AV-" depart="2185.00">
        <route edges="top-approaching right-exit"/>
    </vehicle>
    <vehicle id="L4-AV-117" type="L4-AV-" depart="2223.00">
        <route edges="bottom-approaching right-exit"/>
    </vehicle>
    <vehicle id="L4-AV-119" type="L4-AV-" depart="2261.00">
        <route edges="bottom-approaching top-exit"/>
    </vehicle>
    <vehicle id="L4-AV-121" type="L4-AV-" depart="2299.00">
        <route edges="left-long-approaching preparation left-short-approaching right-exit"/>
    </vehicle>
    <vehicle id="L4-AV-122" type="L4-AV-" depart="2318.00">
        <route edges="top-approaching closed-lane remerging-lane left-exit"/>
    </vehicle>
    <vehicle id="L4-AV-123" type="L4-AV-" depart="2337.00">
        <route edges="right-approaching bottom-exit"/>
    </vehicle>
    <vehicle id="L4-AV-124" type="L4-AV-" depart="2356.00">
        <route edges="bottom-approaching closed-lane remerging-lane left-exit"/>
    </vehicle>
    <vehicle id="L4-AV-125" type="L4-AV-" depart="2375.00">
        <route edges="top-approaching right-exit"/>
    </vehicle>
    <vehicle id="L4-AV-126" type="L4-AV-" depart="2394.00">
        <route edges="top-approaching closed-lane remerging-lane left-exit"/>
    </vehicle>
    <vehicle id="L4-AV-127" type="L4-AV-Left-" depart="2413.00">
        <route edges="left-long-approaching preparation"/>
    </vehicle>
    <vehicle id="L4-AV-128" type="L4-AV-" depart="2432.00">
        <route edges="top-approaching bottom-exit"/>
    </vehicle>
    <vehicle id="L4-AV-129" type="L4-AV-" depart="2451.00">
        <route edges="right-approaching bottom-exit"/>
    </vehicle>
    <vehicle id="L4-AV-130" type="L4-AV-" depart="2470.00">
        <route edges="bottom-approaching top-exit"/>
    </vehicle>
    <vehicle id="L4-AV-132" type="L4-AV-" depart="2508.00">
        <route edges="top-approaching closed-lane remerging-lane left-exit"/>
    </vehicle>
    <vehicle id="L4-AV-134" type="L4-AV-" depart="2546.00">
        <route edges="bottom-approaching right-exit"/>
    </vehicle>
    <vehicle id="L4-AV-135" type="L4-AV-" depart="2565.00">
        <route edges="bottom-approaching top-exit"/>
    </vehicle>
    <vehicle id="L4-AV-136" type="L4-AV-Left-" depart="2584.00">
        <route edges="left-long-approaching preparation"/>
    </vehicle>
    <vehicle id="L4-AV-137" type="L4-AV-" depart="2603.00">
        <route edges="top-approaching closed-lane remerging-lane left-exit"/>
    </vehicle>
    <vehicle id="L4-AV-139" type="L4-AV-" depart="2641.00">
        <route edges="bottom-approaching right-exit"/>
    </vehicle>
    <vehicle id="L4-AV-141" type="L4-AV-" depart="2679.00">
        <route edges="top-approaching closed-lane remerging-lane left-exit"/>
    </vehicle>
    <vehicle id="L4-AV-142" type="L4-AV-" depart="2698.00">
        <route edges="right-approaching closed-lane remerging-lane left-exit"/>
    </vehicle>
    <vehicle id="L4-AV-143" type="L4-AV-Right-" depart="2717.00">
        <route edges="left-long-approaching preparation left-short-approaching bottom-exit"/>
    </vehicle>
    <vehicle id="L4-AV-145" type="L4-AV-" depart="2755.00">
        <route edges="top-approaching bottom-exit"/>
    </vehicle>
    <vehicle id="L4-AV-146" type="L4-AV-" depart="2774.00">
        <route edges="bottom-approaching right-exit"/>
    </vehicle>
    <vehicle id="L4-AV-147" type="L4-AV-" depart="2793.00">
        <route edges="top-approaching right-exit"/>
    </vehicle>
    <vehicle id="L4-AV-149" type="L4-AV-" depart="2831.00">
        <route edges="left-long-approaching preparation left-short-approaching right-exit"/>
    </vehicle>
    <vehicle id="L4-AV-150" type="L4-AV-Right-" depart="2850.00">
        <route edges="left-long-approaching preparation left-short-approaching bottom-exit"/>
    </vehicle>
    <vehicle id="L4-AV-151" type="L4-AV-" depart="2869.00">
        <route edges="bottom-approaching closed-lane remerging-lane left-exit"/>
    </vehicle>
    <vehicle id="L4-AV-152" type="L4-AV-" depart="2888.00">
        <route edges="top-approaching closed-lane remerging-lane left-exit"/>
    </vehicle>
    <vehicle id="L4-AV-154" type="L4-AV-" depart="2926.00">
        <route edges="top-approaching closed-lane remerging-lane left-exit"/>
    </vehicle>
    <vehicle id="L4-AV-156" type="L4-AV-Left-" depart="2964.00">
        <route edges="left-long-approaching preparation"/>
    </vehicle>
    <vehicle id="L4-AV-157" type="L4-AV-" depart="2983.00">
        <route edges="top-approaching closed-lane remerging-lane left-exit"/>
    </vehicle>
    <vehicle id="L4-AV-158" type="L4-AV-" depart="3002.00">
        <route edges="left-long-approaching preparation left-short-approaching right-exit"/>
    </vehicle>
    <vehicle id="L4-AV-162" type="L4-AV-" depart="3078.00">
        <route edges="right-approaching bottom-exit"/>
    </vehicle>
    <vehicle id="L4-AV-163" type="L4-AV-" depart="3097.00">
        <route edges="bottom-approaching right-exit"/>
    </vehicle>
    <vehicle id="L4-AV-164" type="L4-AV-Left-" depart="3116.00">
        <route edges="left-long-approaching preparation"/>
    </vehicle>
    <vehicle id="L4-AV-165" type="L4-AV-Left-" depart="3135.00">
        <route edges="left-long-approaching preparation"/>
    </vehicle>
    <vehicle id="L4-AV-167" type="L4-AV-" depart="3173.00">
        <route edges="top-approaching bottom-exit"/>
    </vehicle>
    <vehicle id="L4-AV-168" type="L4-AV-" depart="3192.00">
        <route edges="top-approaching bottom-exit"/>
    </vehicle>
    <vehicle id="L4-AV-170" type="L4-AV-" depart="3230.00">
        <route edges="top-approaching closed-lane remerging-lane left-exit"/>
    </vehicle>
    <vehicle id="L4-AV-171" type="L4-AV-" depart="3249.00">
        <route edges="bottom-approaching right-exit"/>
    </vehicle>
    <vehicle id="L4-AV-172" type="L4-AV-" depart="3268.00">
        <route edges="top-approaching closed-lane remerging-lane left-exit"/>
    </vehicle>
    <vehicle id="L4-AV-173" type="L4-AV-" depart="3287.00">
        <route edges="top-approaching bottom-exit"/>
    </vehicle>
    <vehicle id="L4-AV-174" type="L4-AV-" depart="3306.00">
        <route edges="top-approaching bottom-exit"/>
    </vehicle>
    <vehicle id="L4-AV-175" type="L4-AV-Left-" depart="3325.00">
        <route edges="left-long-approaching preparation"/>
    </vehicle>
    <vehicle id="L4-AV-177" type="L4-AV-" depart="3363.00">
        <route edges="top-approaching right-exit"/>
    </vehicle>
    <vehicle id="L4-AV-178" type="L4-AV-" depart="3382.00">
        <route edges="right-approaching bottom-exit"/>
    </vehicle>
    <vehicle id="L4-AV-179" type="L4-AV-Right-" depart="3401.00">
        <route edges="left-long-approaching preparation left-short-approaching bottom-exit"/>
    </vehicle>
    <vehicle id="L4-AV-181" type="L4-AV-Right-" depart="3439.00">
        <route edges="left-long-approaching preparation left-short-approaching bottom-exit"/>
    </vehicle>
    <vehicle id="L4-AV-184" type="L4-AV-" depart="3496.00">
        <route edges="top-approaching closed-lane remerging-lane left-exit"/>
    </vehicle>
    <vehicle id="L4-AV-186" type="L4-AV-Right-" depart="3534.00">
        <route edges="left-long-approaching preparation left-short-approaching bottom-exit"/>
    </vehicle>
    <vehicle id="L4-AV-187" type="L4-AV-" depart="3553.00">
        <route edges="right-approaching closed-lane remerging-lane left-exit"/>
    </vehicle>
    <vehicle id="L4-AV-188" type="L4-AV-" depart="3572.00">
        <route edges="right-approaching bottom-exit"/>
    </vehicle>
    <vehicle id="L4-AV-189" type="L4-AV-Right-" depart="3591.00">
        <route edges="left-long-approaching preparation left-short-approaching bottom-exit"/>
    </vehicle>
</routes>