<?xml version="1.0" ?><!-- generated on 04/05/21 18:50:41 by Eclipse SUMO duarouter Version 1.8.0
<configuration xmlns:xsi="http://www.w3.org/2001/XMLSchema-instance" xsi:noNamespaceSchemaLocation="http://sumo.dlr.de/xsd/duarouterConfiguration.xsd">

    <input>
        <net-file value="Roadworks/RoadworksIntersection.net.xml"/>
        <route-files value="trips.trips.xml"/>
    </input>

    <output>
        <output-file value="Roadworks/BaselinePenetration1/Route-Files/L4-CV-Route.rou.xml"/>
        <alternatives-output value="Roadworks/BaselinePenetration1/Route-Files/L4-CV-Route.rou.alt.xml"/>
    </output>

    <time>
        <begin value="0"/>
        <end value="3600"/>
    </time>

    <report>
        <no-warnings value="true"/>
        <ignore-errors value="true"/>
        <no-step-log value="true"/>
    </report>

</configuration>
--><routes xmlns:xsi="http://www.w3.org/2001/XMLSchema-instance" xsi:noNamespaceSchemaLocation="http://sumo.dlr.de/xsd/routes_file.xsd">
    <vehicle id="L4-CV-0" type="L4-CV-" depart="0.00">
        <route edges="bottom-approaching top-exit"/>
    </vehicle>
    <vehicle id="L4-CV-1" type="L4-CV-" depart="20.00">
        <route edges="top-approaching closed-lane remerging-lane left-exit"/>
    </vehicle>
    <vehicle id="L4-CV-3" type="L4-CV-" depart="60.00">
        <route edges="right-approaching top-exit"/>
    </vehicle>
    <vehicle id="L4-CV-5" type="L4-CV-" depart="100.00">
        <route edges="top-approaching closed-lane remerging-lane left-exit"/>
    </vehicle>
    <vehicle id="L4-CV-6" type="L4-CV-" depart="120.00">
        <route edges="top-approaching bottom-exit"/>
    </vehicle>
    <vehicle id="L4-CV-7" type="L4-CV-" depart="140.00">
        <route edges="left-long-approaching preparation left-short-approaching right-exit"/>
    </vehicle>
    <vehicle id="L4-CV-8" type="L4-CV-" depart="160.00">
        <route edges="bottom-approaching top-exit"/>
    </vehicle>
    <vehicle id="L4-CV-9" type="L4-CV-" depart="180.00">
        <route edges="top-approaching bottom-exit"/>
    </vehicle>
    <vehicle id="L4-CV-10" type="L4-CV-" depart="200.00">
        <route edges="bottom-approaching right-exit"/>
    </vehicle>
    <vehicle id="L4-CV-11" type="L4-CV-" depart="220.00">
        <route edges="top-approaching closed-lane remerging-lane left-exit"/>
    </vehicle>
    <vehicle id="L4-CV-12" type="L4-CV-" depart="240.00">
        <route edges="bottom-approaching closed-lane remerging-lane left-exit"/>
    </vehicle>
    <vehicle id="L4-CV-16" type="L4-CV-" depart="320.00">
        <route edges="bottom-approaching closed-lane remerging-lane left-exit"/>
    </vehicle>
    <vehicle id="L4-CV-17" type="L4-CV-Right-" depart="340.00">
        <route edges="left-long-approaching preparation left-short-approaching bottom-exit"/>
    </vehicle>
    <vehicle id="L4-CV-18" type="L4-CV-" depart="360.00">
        <route edges="top-approaching right-exit"/>
    </vehicle>
    <vehicle id="L4-CV-19" type="L4-CV-" depart="380.00">
        <route edges="right-approaching bottom-exit"/>
    </vehicle>
    <vehicle id="L4-CV-21" type="L4-CV-" depart="420.00">
        <route edges="bottom-approaching closed-lane remerging-lane left-exit"/>
    </vehicle>
    <vehicle id="L4-CV-23" type="L4-CV-" depart="460.00">
        <route edges="top-approaching closed-lane remerging-lane left-exit"/>
    </vehicle>
    <vehicle id="L4-CV-24" type="L4-CV-" depart="480.00">
        <route edges="top-approaching right-exit"/>
    </vehicle>
    <vehicle id="L4-CV-25" type="L4-CV-" depart="500.00">
        <route edges="left-long-approaching preparation left-short-approaching right-exit"/>
    </vehicle>
    <vehicle id="L4-CV-29" type="L4-CV-" depart="580.00">
        <route edges="top-approaching closed-lane remerging-lane left-exit"/>
    </vehicle>
    <vehicle id="L4-CV-30" type="L4-CV-" depart="600.00">
        <route edges="bottom-approaching right-exit"/>
    </vehicle>
    <vehicle id="L4-CV-33" type="L4-CV-" depart="660.00">
        <route edges="right-approaching top-exit"/>
    </vehicle>
    <vehicle id="L4-CV-34" type="L4-CV-" depart="680.00">
        <route edges="right-approaching closed-lane remerging-lane left-exit"/>
    </vehicle>
    <vehicle id="L4-CV-35" type="L4-CV-Right-" depart="700.00">
        <route edges="left-long-approaching preparation left-short-approaching bottom-exit"/>
    </vehicle>
    <vehicle id="L4-CV-36" type="L4-CV-" depart="720.00">
        <route edges="bottom-approaching right-exit"/>
    </vehicle>
    <vehicle id="L4-CV-37" type="L4-CV-" depart="740.00">
        <route edges="top-approaching right-exit"/>
    </vehicle>
    <vehicle id="L4-CV-38" type="L4-CV-Right-" depart="760.00">
        <route edges="left-long-approaching preparation left-short-approaching bottom-exit"/>
    </vehicle>
    <vehicle id="L4-CV-39" type="L4-CV-Left-" depart="780.00">
        <route edges="left-long-approaching preparation"/>
    </vehicle>
    <vehicle id="L4-CV-40" type="L4-CV-" depart="800.00">
        <route edges="top-approaching right-exit"/>
    </vehicle>
    <vehicle id="L4-CV-41" type="L4-CV-" depart="820.00">
        <route edges="top-approaching bottom-exit"/>
    </vehicle>
    <vehicle id="L4-CV-42" type="L4-CV-" depart="840.00">
        <route edges="right-approaching top-exit"/>
    </vehicle>
    <vehicle id="L4-CV-43" type="L4-CV-" depart="860.00">
        <route edges="right-approaching closed-lane remerging-lane left-exit"/>
    </vehicle>
    <vehicle id="L4-CV-44" type="L4-CV-" depart="880.00">
        <route edges="left-long-approaching preparation left-short-approaching right-exit"/>
    </vehicle>
    <vehicle id="L4-CV-45" type="L4-CV-" depart="900.00">
        <route edges="top-approaching bottom-exit"/>
    </vehicle>
    <vehicle id="L4-CV-47" type="L4-CV-" depart="940.00">
        <route edges="top-approaching right-exit"/>
    </vehicle>
    <vehicle id="L4-CV-48" type="L4-CV-" depart="960.00">
        <route edges="top-approaching right-exit"/>
    </vehicle>
    <vehicle id="L4-CV-49" type="L4-CV-" depart="980.00">
        <route edges="right-approaching closed-lane remerging-lane left-exit"/>
    </vehicle>
    <vehicle id="L4-CV-50" type="L4-CV-" depart="1000.00">
        <route edges="bottom-approaching top-exit"/>
    </vehicle>
    <vehicle id="L4-CV-51" type="L4-CV-" depart="1020.00">
        <route edges="right-approaching bottom-exit"/>
    </vehicle>
    <vehicle id="L4-CV-52" type="L4-CV-" depart="1040.00">
        <route edges="right-approaching closed-lane remerging-lane left-exit"/>
    </vehicle>
    <vehicle id="L4-CV-55" type="L4-CV-" depart="1100.00">
        <route edges="right-approaching closed-lane remerging-lane left-exit"/>
    </vehicle>
    <vehicle id="L4-CV-57" type="L4-CV-" depart="1140.00">
        <route edges="bottom-approaching right-exit"/>
    </vehicle>
    <vehicle id="L4-CV-60" type="L4-CV-Left-" depart="1200.00">
        <route edges="left-long-approaching preparation"/>
    </vehicle>
    <vehicle id="L4-CV-61" type="L4-CV-" depart="1220.00">
        <route edges="right-approaching bottom-exit"/>
    </vehicle>
    <vehicle id="L4-CV-63" type="L4-CV-" depart="1260.00">
        <route edges="top-approaching closed-lane remerging-lane left-exit"/>
    </vehicle>
    <vehicle id="L4-CV-64" type="L4-CV-" depart="1280.00">
        <route edges="bottom-approaching right-exit"/>
    </vehicle>
    <vehicle id="L4-CV-65" type="L4-CV-Right-" depart="1300.00">
        <route edges="left-long-approaching preparation left-short-approaching bottom-exit"/>
    </vehicle>
    <vehicle id="L4-CV-66" type="L4-CV-" depart="1320.00">
        <route edges="bottom-approaching right-exit"/>
    </vehicle>
    <vehicle id="L4-CV-67" type="L4-CV-" depart="1340.00">
        <route edges="bottom-approaching closed-lane remerging-lane left-exit"/>
    </vehicle>
    <vehicle id="L4-CV-68" type="L4-CV-" depart="1360.00">
        <route edges="right-approaching closed-lane remerging-lane left-exit"/>
    </vehicle>
    <vehicle id="L4-CV-70" type="L4-CV-" depart="1400.00">
        <route edges="bottom-approaching closed-lane remerging-lane left-exit"/>
    </vehicle>
    <vehicle id="L4-CV-71" type="L4-CV-Right-" depart="1420.00">
        <route edges="left-long-approaching preparation left-short-approaching bottom-exit"/>
    </vehicle>
    <vehicle id="L4-CV-72" type="L4-CV-" depart="1440.00">
        <route edges="bottom-approaching top-exit"/>
    </vehicle>
    <vehicle id="L4-CV-73" type="L4-CV-" depart="1460.00">
        <route edges="right-approaching bottom-exit"/>
    </vehicle>
    <vehicle id="L4-CV-74" type="L4-CV-" depart="1480.00">
        <route edges="right-approaching top-exit"/>
    </vehicle>
    <vehicle id="L4-CV-76" type="L4-CV-" depart="1520.00">
        <route edges="bottom-approaching right-exit"/>
    </vehicle>
    <vehicle id="L4-CV-77" type="L4-CV-" depart="1540.00">
        <route edges="bottom-approaching right-exit"/>
    </vehicle>
    <vehicle id="L4-CV-79" type="L4-CV-" depart="1580.00">
        <route edges="bottom-approaching top-exit"/>
    </vehicle>
    <vehicle id="L4-CV-80" type="L4-CV-" depart="1600.00">
        <route edges="top-approaching right-exit"/>
    </vehicle>
    <vehicle id="L4-CV-81" type="L4-CV-" depart="1620.00">
        <route edges="bottom-approaching right-exit"/>
    </vehicle>
    <vehicle id="L4-CV-82" type="L4-CV-" depart="1640.00">
        <route edges="left-long-approaching preparation left-short-approaching right-exit"/>
    </vehicle>
    <vehicle id="L4-CV-83" type="L4-CV-" depart="1660.00">
        <route edges="left-long-approaching preparation left-short-approaching right-exit"/>
    </vehicle>
    <vehicle id="L4-CV-84" type="L4-CV-" depart="1680.00">
        <route edges="bottom-approaching closed-lane remerging-lane left-exit"/>
    </vehicle>
    <vehicle id="L4-CV-86" type="L4-CV-Left-" depart="1720.00">
        <route edges="left-long-approaching preparation"/>
    </vehicle>
    <vehicle id="L4-CV-87" type="L4-CV-Left-" depart="1740.00">
        <route edges="left-long-approaching preparation"/>
    </vehicle>
    <vehicle id="L4-CV-88" type="L4-CV-" depart="1760.00">
        <route edges="right-approaching closed-lane remerging-lane left-exit"/>
    </vehicle>
    <vehicle id="L4-CV-89" type="L4-CV-Right-" depart="1780.00">
        <route edges="left-long-approaching preparation left-short-approaching bottom-exit"/>
    </vehicle>
    <vehicle id="L4-CV-90" type="L4-CV-" depart="1800.00">
        <route edges="top-approaching bottom-exit"/>
    </vehicle>
    <vehicle id="L4-CV-92" type="L4-CV-" depart="1840.00">
        <route edges="right-approaching bottom-exit"/>
    </vehicle>
    <vehicle id="L4-CV-96" type="L4-CV-" depart="1920.00">
        <route edges="bottom-approaching right-exit"/>
    </vehicle>
    <vehicle id="L4-CV-97" type="L4-CV-Right-" depart="1940.00">
        <route edges="left-long-approaching preparation left-short-approaching bottom-exit"/>
    </vehicle>
    <vehicle id="L4-CV-98" type="L4-CV-" depart="1960.00">
        <route edges="bottom-approaching right-exit"/>
    </vehicle>
    <vehicle id="L4-CV-99" type="L4-CV-Left-" depart="1980.00">
        <route edges="left-long-approaching preparation"/>
    </vehicle>
    <vehicle id="L4-CV-100" type="L4-CV-Left-" depart="2000.00">
        <route edges="left-long-approaching preparation"/>
    </vehicle>
    <vehicle id="L4-CV-101" type="L4-CV-" depart="2020.00">
        <route edges="top-approaching bottom-exit"/>
    </vehicle>
    <vehicle id="L4-CV-102" type="L4-CV-" depart="2040.00">
        <route edges="bottom-approaching closed-lane remerging-lane left-exit"/>
    </vehicle>
    <vehicle id="L4-CV-104" type="L4-CV-Right-" depart="2080.00">
        <route edges="left-long-approaching preparation left-short-approaching bottom-exit"/>
    </vehicle>
    <vehicle id="L4-CV-105" type="L4-CV-" depart="2100.00">
        <route edges="right-approaching top-exit"/>
    </vehicle>
    <vehicle id="L4-CV-106" type="L4-CV-" depart="2120.00">
        <route edges="top-approaching closed-lane remerging-lane left-exit"/>
    </vehicle>
    <vehicle id="L4-CV-107" type="L4-CV-" depart="2140.00">
        <route edges="top-approaching right-exit"/>
    </vehicle>
    <vehicle id="L4-CV-108" type="L4-CV-Left-" depart="2160.00">
        <route edges="left-long-approaching preparation"/>
    </vehicle>
    <vehicle id="L4-CV-109" type="L4-CV-" depart="2180.00">
        <route edges="bottom-approaching right-exit"/>
    </vehicle>
    <vehicle id="L4-CV-111" type="L4-CV-" depart="2220.00">
        <route edges="top-approaching bottom-exit"/>
    </vehicle>
    <vehicle id="L4-CV-112" type="L4-CV-" depart="2240.00">
        <route edges="top-approaching right-exit"/>
    </vehicle>
    <vehicle id="L4-CV-113" type="L4-CV-" depart="2260.00">
        <route edges="top-approaching closed-lane remerging-lane left-exit"/>
    </vehicle>
    <vehicle id="L4-CV-115" type="L4-CV-" depart="2300.00">
        <route edges="top-approaching right-exit"/>
    </vehicle>
    <vehicle id="L4-CV-117" type="L4-CV-" depart="2340.00">
        <route edges="bottom-approaching right-exit"/>
    </vehicle>
    <vehicle id="L4-CV-119" type="L4-CV-" depart="2380.00">
        <route edges="bottom-approaching top-exit"/>
    </vehicle>
    <vehicle id="L4-CV-121" type="L4-CV-" depart="2420.00">
        <route edges="left-long-approaching preparation left-short-approaching right-exit"/>
    </vehicle>
    <vehicle id="L4-CV-122" type="L4-CV-" depart="2440.00">
        <route edges="top-approaching closed-lane remerging-lane left-exit"/>
    </vehicle>
    <vehicle id="L4-CV-123" type="L4-CV-" depart="2460.00">
        <route edges="right-approaching bottom-exit"/>
    </vehicle>
    <vehicle id="L4-CV-124" type="L4-CV-" depart="2480.00">
        <route edges="bottom-approaching closed-lane remerging-lane left-exit"/>
    </vehicle>
    <vehicle id="L4-CV-125" type="L4-CV-" depart="2500.00">
        <route edges="top-approaching right-exit"/>
    </vehicle>
    <vehicle id="L4-CV-126" type="L4-CV-" depart="2520.00">
        <route edges="top-approaching closed-lane remerging-lane left-exit"/>
    </vehicle>
    <vehicle id="L4-CV-127" type="L4-CV-Left-" depart="2540.00">
        <route edges="left-long-approaching preparation"/>
    </vehicle>
    <vehicle id="L4-CV-128" type="L4-CV-" depart="2560.00">
        <route edges="top-approaching bottom-exit"/>
    </vehicle>
    <vehicle id="L4-CV-129" type="L4-CV-" depart="2580.00">
        <route edges="right-approaching bottom-exit"/>
    </vehicle>
    <vehicle id="L4-CV-130" type="L4-CV-" depart="2600.00">
        <route edges="bottom-approaching top-exit"/>
    </vehicle>
    <vehicle id="L4-CV-132" type="L4-CV-" depart="2640.00">
        <route edges="top-approaching closed-lane remerging-lane left-exit"/>
    </vehicle>
    <vehicle id="L4-CV-134" type="L4-CV-" depart="2680.00">
        <route edges="bottom-approaching right-exit"/>
    </vehicle>
    <vehicle id="L4-CV-135" type="L4-CV-" depart="2700.00">
        <route edges="bottom-approaching top-exit"/>
    </vehicle>
    <vehicle id="L4-CV-136" type="L4-CV-Left-" depart="2720.00">
        <route edges="left-long-approaching preparation"/>
    </vehicle>
    <vehicle id="L4-CV-137" type="L4-CV-" depart="2740.00">
        <route edges="top-approaching closed-lane remerging-lane left-exit"/>
    </vehicle>
    <vehicle id="L4-CV-139" type="L4-CV-" depart="2780.00">
        <route edges="bottom-approaching right-exit"/>
    </vehicle>
    <vehicle id="L4-CV-141" type="L4-CV-" depart="2820.00">
        <route edges="top-approaching closed-lane remerging-lane left-exit"/>
    </vehicle>
    <vehicle id="L4-CV-142" type="L4-CV-" depart="2840.00">
        <route edges="right-approaching closed-lane remerging-lane left-exit"/>
    </vehicle>
    <vehicle id="L4-CV-143" type="L4-CV-Right-" depart="2860.00">
        <route edges="left-long-approaching preparation left-short-approaching bottom-exit"/>
    </vehicle>
    <vehicle id="L4-CV-145" type="L4-CV-" depart="2900.00">
        <route edges="top-approaching bottom-exit"/>
    </vehicle>
    <vehicle id="L4-CV-146" type="L4-CV-" depart="2920.00">
        <route edges="bottom-approaching right-exit"/>
    </vehicle>
    <vehicle id="L4-CV-147" type="L4-CV-" depart="2940.00">
        <route edges="top-approaching right-exit"/>
    </vehicle>
    <vehicle id="L4-CV-149" type="L4-CV-" depart="2980.00">
        <route edges="left-long-approaching preparation left-short-approaching right-exit"/>
    </vehicle>
    <vehicle id="L4-CV-150" type="L4-CV-Right-" depart="3000.00">
        <route edges="left-long-approaching preparation left-short-approaching bottom-exit"/>
    </vehicle>
    <vehicle id="L4-CV-151" type="L4-CV-" depart="3020.00">
        <route edges="bottom-approaching closed-lane remerging-lane left-exit"/>
    </vehicle>
    <vehicle id="L4-CV-152" type="L4-CV-" depart="3040.00">
        <route edges="top-approaching closed-lane remerging-lane left-exit"/>
    </vehicle>
    <vehicle id="L4-CV-154" type="L4-CV-" depart="3080.00">
        <route edges="top-approaching closed-lane remerging-lane left-exit"/>
    </vehicle>
    <vehicle id="L4-CV-156" type="L4-CV-Left-" depart="3120.00">
        <route edges="left-long-approaching preparation"/>
    </vehicle>
    <vehicle id="L4-CV-157" type="L4-CV-" depart="3140.00">
        <route edges="top-approaching closed-lane remerging-lane left-exit"/>
    </vehicle>
    <vehicle id="L4-CV-158" type="L4-CV-" depart="3160.00">
        <route edges="left-long-approaching preparation left-short-approaching right-exit"/>
    </vehicle>
    <vehicle id="L4-CV-162" type="L4-CV-" depart="3240.00">
        <route edges="right-approaching bottom-exit"/>
    </vehicle>
    <vehicle id="L4-CV-163" type="L4-CV-" depart="3260.00">
        <route edges="bottom-approaching right-exit"/>
    </vehicle>
    <vehicle id="L4-CV-164" type="L4-CV-Left-" depart="3280.00">
        <route edges="left-long-approaching preparation"/>
    </vehicle>
    <vehicle id="L4-CV-165" type="L4-CV-Left-" depart="3300.00">
        <route edges="left-long-approaching preparation"/>
    </vehicle>
    <vehicle id="L4-CV-167" type="L4-CV-" depart="3340.00">
        <route edges="top-approaching bottom-exit"/>
    </vehicle>
    <vehicle id="L4-CV-168" type="L4-CV-" depart="3360.00">
        <route edges="top-approaching bottom-exit"/>
    </vehicle>
    <vehicle id="L4-CV-170" type="L4-CV-" depart="3400.00">
        <route edges="top-approaching closed-lane remerging-lane left-exit"/>
    </vehicle>
    <vehicle id="L4-CV-171" type="L4-CV-" depart="3420.00">
        <route edges="bottom-approaching right-exit"/>
    </vehicle>
    <vehicle id="L4-CV-172" type="L4-CV-" depart="3440.00">
        <route edges="top-approaching closed-lane remerging-lane left-exit"/>
    </vehicle>
    <vehicle id="L4-CV-173" type="L4-CV-" depart="3460.00">
        <route edges="top-approaching bottom-exit"/>
    </vehicle>
    <vehicle id="L4-CV-174" type="L4-CV-" depart="3480.00">
        <route edges="top-approaching bottom-exit"/>
    </vehicle>
    <vehicle id="L4-CV-175" type="L4-CV-Left-" depart="3500.00">
        <route edges="left-long-approaching preparation"/>
    </vehicle>
    <vehicle id="L4-CV-177" type="L4-CV-" depart="3540.00">
        <route edges="top-approaching right-exit"/>
    </vehicle>
    <vehicle id="L4-CV-178" type="L4-CV-" depart="3560.00">
        <route edges="right-approaching bottom-exit"/>
    </vehicle>
    <vehicle id="L4-CV-179" type="L4-CV-Right-" depart="3580.00">
        <route edges="left-long-approaching preparation left-short-approaching bottom-exit"/>
    </vehicle>
</routes>