<?xml version="1.0" ?><!-- generated on 03/31/21 04:29:14 by Eclipse SUMO duarouter Version 1.8.0
<configuration xmlns:xsi="http://www.w3.org/2001/XMLSchema-instance" xsi:noNamespaceSchemaLocation="http://sumo.dlr.de/xsd/duarouterConfiguration.xsd">

    <input>
        <net-file value="Collision/CollisionIntersection.net.xml"/>
        <route-files value="trips.trips.xml"/>
    </input>

    <output>
        <output-file value="Collision/RealTMSPenetration2/Route-Files/L0-HDV-Route.rou.xml"/>
        <alternatives-output value="Collision/RealTMSPenetration2/Route-Files/L0-HDV-Route.rou.alt.xml"/>
    </output>

    <time>
        <begin value="120"/>
        <end value="3600"/>
    </time>

    <report>
        <no-warnings value="true"/>
        <ignore-errors value="true"/>
        <no-step-log value="true"/>
    </report>

</configuration>
--><routes xmlns:xsi="http://www.w3.org/2001/XMLSchema-instance" xsi:noNamespaceSchemaLocation="http://sumo.dlr.de/xsd/routes_file.xsd">
    <vehicle id="L0-HDV-2" type="L0-HDV-" depart="126.42">
        <route edges="top-approaching right-exit"/>
    </vehicle>
    <vehicle id="L0-HDV-3" type="L0-HDV-" depart="129.63">
        <route edges="right-approaching left-exit-blockage left-exit"/>
    </vehicle>
    <vehicle id="L0-HDV-5" type="L0-HDV-" depart="136.05">
        <route edges="right-approaching bottom-exit"/>
    </vehicle>
    <vehicle id="L0-HDV-7" type="L0-HDV-" depart="142.47">
        <route edges="right-approaching top-exit"/>
    </vehicle>
    <vehicle id="L0-HDV-8" type="L0-HDV-" depart="145.68">
        <route edges="top-approaching right-exit"/>
    </vehicle>
    <vehicle id="L0-HDV-12" type="L0-HDV-Left-" depart="158.52">
        <route edges="left-long-approaching left-short-approaching top-exit"/>
    </vehicle>
    <vehicle id="L0-HDV-15" type="L0-HDV-" depart="168.15">
        <route edges="left-long-approaching left-short-approaching bottom-exit"/>
    </vehicle>
    <vehicle id="L0-HDV-16" type="L0-HDV-" depart="171.36">
        <route edges="right-approaching top-exit"/>
    </vehicle>
    <vehicle id="L0-HDV-17" type="L0-HDV-" depart="174.57">
        <route edges="right-approaching bottom-exit"/>
    </vehicle>
    <vehicle id="L0-HDV-19" type="L0-HDV-" depart="180.99">
        <route edges="right-approaching top-exit"/>
    </vehicle>
    <vehicle id="L0-HDV-21" type="L0-HDV-Left-" depart="187.41">
        <route edges="left-long-approaching left-short-approaching top-exit"/>
    </vehicle>
    <vehicle id="L0-HDV-22" type="L0-HDV-" depart="190.62">
        <route edges="top-approaching bottom-exit"/>
    </vehicle>
    <vehicle id="L0-HDV-23" type="L0-HDV-" depart="193.83">
        <route edges="top-approaching right-exit"/>
    </vehicle>
    <vehicle id="L0-HDV-24" type="L0-HDV-Straight-" depart="197.04">
        <route edges="left-long-approaching left-short-approaching right-exit"/>
    </vehicle>
    <vehicle id="L0-HDV-25" type="L0-HDV-Left-" depart="200.25">
        <route edges="left-long-approaching left-short-approaching top-exit"/>
    </vehicle>
    <vehicle id="L0-HDV-26" type="L0-HDV-Left-" depart="203.46">
        <route edges="left-long-approaching left-short-approaching top-exit"/>
    </vehicle>
    <vehicle id="L0-HDV-27" type="L0-HDV-Left-" depart="206.67">
        <route edges="left-long-approaching left-short-approaching top-exit"/>
    </vehicle>
    <vehicle id="L0-HDV-28" type="L0-HDV-" depart="209.88">
        <route edges="top-approaching left-exit-blockage left-exit"/>
    </vehicle>
    <vehicle id="L0-HDV-29" type="L0-HDV-" depart="213.09">
        <route edges="right-approaching top-exit"/>
    </vehicle>
    <vehicle id="L0-HDV-30" type="L0-HDV-" depart="216.30">
        <route edges="right-approaching left-exit-blockage left-exit"/>
    </vehicle>
    <vehicle id="L0-HDV-31" type="L0-HDV-" depart="219.51">
        <route edges="bottom-approaching left-exit-blockage left-exit"/>
    </vehicle>
    <vehicle id="L0-HDV-32" type="L0-HDV-" depart="222.72">
        <route edges="right-approaching bottom-exit"/>
    </vehicle>
    <vehicle id="L0-HDV-33" type="L0-HDV-" depart="225.93">
        <route edges="top-approaching left-exit-blockage left-exit"/>
    </vehicle>
    <vehicle id="L0-HDV-34" type="L0-HDV-" depart="229.14">
        <route edges="top-approaching left-exit-blockage left-exit"/>
    </vehicle>
    <vehicle id="L0-HDV-35" type="L0-HDV-" depart="232.35">
        <route edges="top-approaching right-exit"/>
    </vehicle>
    <vehicle id="L0-HDV-36" type="L0-HDV-Straight-" depart="235.56">
        <route edges="left-long-approaching left-short-approaching right-exit"/>
    </vehicle>
    <vehicle id="L0-HDV-38" type="L0-HDV-" depart="241.98">
        <route edges="left-long-approaching left-short-approaching bottom-exit"/>
    </vehicle>
    <vehicle id="L0-HDV-39" type="L0-HDV-" depart="245.19">
        <route edges="right-approaching top-exit"/>
    </vehicle>
    <vehicle id="L0-HDV-40" type="L0-HDV-" depart="248.40">
        <route edges="right-approaching bottom-exit"/>
    </vehicle>
    <vehicle id="L0-HDV-41" type="L0-HDV-" depart="251.61">
        <route edges="top-approaching right-exit"/>
    </vehicle>
    <vehicle id="L0-HDV-42" type="L0-HDV-" depart="254.82">
        <route edges="top-approaching bottom-exit"/>
    </vehicle>
    <vehicle id="L0-HDV-43" type="L0-HDV-" depart="258.03">
        <route edges="right-approaching bottom-exit"/>
    </vehicle>
    <vehicle id="L0-HDV-44" type="L0-HDV-" depart="261.24">
        <route edges="right-approaching left-exit-blockage left-exit"/>
    </vehicle>
    <vehicle id="L0-HDV-45" type="L0-HDV-" depart="264.45">
        <route edges="bottom-approaching top-exit"/>
    </vehicle>
    <vehicle id="L0-HDV-46" type="L0-HDV-" depart="267.66">
        <route edges="bottom-approaching right-exit"/>
    </vehicle>
    <vehicle id="L0-HDV-47" type="L0-HDV-" depart="270.87">
        <route edges="top-approaching bottom-exit"/>
    </vehicle>
    <vehicle id="L0-HDV-48" type="L0-HDV-" depart="274.08">
        <route edges="bottom-approaching top-exit"/>
    </vehicle>
    <vehicle id="L0-HDV-49" type="L0-HDV-Straight-" depart="277.29">
        <route edges="left-long-approaching left-short-approaching right-exit"/>
    </vehicle>
    <vehicle id="L0-HDV-50" type="L0-HDV-" depart="280.50">
        <route edges="bottom-approaching left-exit-blockage left-exit"/>
    </vehicle>
    <vehicle id="L0-HDV-51" type="L0-HDV-" depart="283.71">
        <route edges="bottom-approaching right-exit"/>
    </vehicle>
    <vehicle id="L0-HDV-52" type="L0-HDV-" depart="286.92">
        <route edges="bottom-approaching top-exit"/>
    </vehicle>
    <vehicle id="L0-HDV-53" type="L0-HDV-" depart="290.13">
        <route edges="bottom-approaching right-exit"/>
    </vehicle>
    <vehicle id="L0-HDV-54" type="L0-HDV-" depart="293.34">
        <route edges="bottom-approaching left-exit-blockage left-exit"/>
    </vehicle>
    <vehicle id="L0-HDV-55" type="L0-HDV-" depart="296.55">
        <route edges="top-approaching bottom-exit"/>
    </vehicle>
    <vehicle id="L0-HDV-56" type="L0-HDV-" depart="299.76">
        <route edges="bottom-approaching right-exit"/>
    </vehicle>
    <vehicle id="L0-HDV-57" type="L0-HDV-" depart="302.97">
        <route edges="left-long-approaching left-short-approaching bottom-exit"/>
    </vehicle>
    <vehicle id="L0-HDV-58" type="L0-HDV-" depart="306.18">
        <route edges="top-approaching bottom-exit"/>
    </vehicle>
    <vehicle id="L0-HDV-59" type="L0-HDV-" depart="309.39">
        <route edges="bottom-approaching left-exit-blockage left-exit"/>
    </vehicle>
    <vehicle id="L0-HDV-61" type="L0-HDV-" depart="315.81">
        <route edges="bottom-approaching left-exit-blockage left-exit"/>
    </vehicle>
    <vehicle id="L0-HDV-62" type="L0-HDV-" depart="319.02">
        <route edges="bottom-approaching left-exit-blockage left-exit"/>
    </vehicle>
    <vehicle id="L0-HDV-63" type="L0-HDV-" depart="322.23">
        <route edges="top-approaching right-exit"/>
    </vehicle>
    <vehicle id="L0-HDV-65" type="L0-HDV-" depart="328.65">
        <route edges="top-approaching right-exit"/>
    </vehicle>
    <vehicle id="L0-HDV-66" type="L0-HDV-" depart="331.86">
        <route edges="left-long-approaching left-short-approaching bottom-exit"/>
    </vehicle>
    <vehicle id="L0-HDV-67" type="L0-HDV-" depart="335.07">
        <route edges="right-approaching left-exit-blockage left-exit"/>
    </vehicle>
    <vehicle id="L0-HDV-68" type="L0-HDV-" depart="338.28">
        <route edges="bottom-approaching left-exit-blockage left-exit"/>
    </vehicle>
    <vehicle id="L0-HDV-69" type="L0-HDV-" depart="341.49">
        <route edges="top-approaching bottom-exit"/>
    </vehicle>
    <vehicle id="L0-HDV-70" type="L0-HDV-" depart="344.70">
        <route edges="right-approaching left-exit-blockage left-exit"/>
    </vehicle>
    <vehicle id="L0-HDV-71" type="L0-HDV-" depart="347.91">
        <route edges="right-approaching bottom-exit"/>
    </vehicle>
    <vehicle id="L0-HDV-72" type="L0-HDV-" depart="351.12">
        <route edges="top-approaching left-exit-blockage left-exit"/>
    </vehicle>
    <vehicle id="L0-HDV-73" type="L0-HDV-" depart="354.33">
        <route edges="right-approaching left-exit-blockage left-exit"/>
    </vehicle>
    <vehicle id="L0-HDV-74" type="L0-HDV-" depart="357.54">
        <route edges="bottom-approaching right-exit"/>
    </vehicle>
    <vehicle id="L0-HDV-77" type="L0-HDV-" depart="367.17">
        <route edges="bottom-approaching right-exit"/>
    </vehicle>
    <vehicle id="L0-HDV-78" type="L0-HDV-" depart="370.38">
        <route edges="right-approaching top-exit"/>
    </vehicle>
    <vehicle id="L0-HDV-80" type="L0-HDV-" depart="376.80">
        <route edges="bottom-approaching left-exit-blockage left-exit"/>
    </vehicle>
    <vehicle id="L0-HDV-82" type="L0-HDV-" depart="383.22">
        <route edges="right-approaching top-exit"/>
    </vehicle>
    <vehicle id="L0-HDV-83" type="L0-HDV-" depart="386.43">
        <route edges="right-approaching left-exit-blockage left-exit"/>
    </vehicle>
    <vehicle id="L0-HDV-84" type="L0-HDV-Straight-" depart="389.64">
        <route edges="left-long-approaching left-short-approaching right-exit"/>
    </vehicle>
    <vehicle id="L0-HDV-86" type="L0-HDV-" depart="396.06">
        <route edges="left-long-approaching left-short-approaching bottom-exit"/>
    </vehicle>
    <vehicle id="L0-HDV-87" type="L0-HDV-" depart="399.27">
        <route edges="right-approaching bottom-exit"/>
    </vehicle>
    <vehicle id="L0-HDV-90" type="L0-HDV-" depart="408.90">
        <route edges="right-approaching left-exit-blockage left-exit"/>
    </vehicle>
    <vehicle id="L0-HDV-91" type="L0-HDV-Straight-" depart="412.11">
        <route edges="left-long-approaching left-short-approaching right-exit"/>
    </vehicle>
    <vehicle id="L0-HDV-92" type="L0-HDV-" depart="415.32">
        <route edges="bottom-approaching top-exit"/>
    </vehicle>
    <vehicle id="L0-HDV-93" type="L0-HDV-" depart="418.53">
        <route edges="top-approaching right-exit"/>
    </vehicle>
    <vehicle id="L0-HDV-94" type="L0-HDV-Straight-" depart="421.74">
        <route edges="left-long-approaching left-short-approaching right-exit"/>
    </vehicle>
    <vehicle id="L0-HDV-95" type="L0-HDV-" depart="424.95">
        <route edges="right-approaching bottom-exit"/>
    </vehicle>
    <vehicle id="L0-HDV-96" type="L0-HDV-Straight-" depart="428.16">
        <route edges="left-long-approaching left-short-approaching right-exit"/>
    </vehicle>
    <vehicle id="L0-HDV-98" type="L0-HDV-" depart="434.58">
        <route edges="top-approaching left-exit-blockage left-exit"/>
    </vehicle>
    <vehicle id="L0-HDV-99" type="L0-HDV-" depart="437.79">
        <route edges="right-approaching top-exit"/>
    </vehicle>
    <vehicle id="L0-HDV-100" type="L0-HDV-" depart="441.00">
        <route edges="right-approaching left-exit-blockage left-exit"/>
    </vehicle>
    <vehicle id="L0-HDV-101" type="L0-HDV-" depart="444.21">
        <route edges="top-approaching left-exit-blockage left-exit"/>
    </vehicle>
    <vehicle id="L0-HDV-102" type="L0-HDV-" depart="447.42">
        <route edges="bottom-approaching right-exit"/>
    </vehicle>
    <vehicle id="L0-HDV-103" type="L0-HDV-" depart="450.63">
        <route edges="bottom-approaching left-exit-blockage left-exit"/>
    </vehicle>
    <vehicle id="L0-HDV-104" type="L0-HDV-" depart="453.84">
        <route edges="top-approaching right-exit"/>
    </vehicle>
    <vehicle id="L0-HDV-105" type="L0-HDV-" depart="457.05">
        <route edges="bottom-approaching left-exit-blockage left-exit"/>
    </vehicle>
    <vehicle id="L0-HDV-107" type="L0-HDV-" depart="463.47">
        <route edges="bottom-approaching right-exit"/>
    </vehicle>
    <vehicle id="L0-HDV-108" type="L0-HDV-" depart="466.68">
        <route edges="bottom-approaching left-exit-blockage left-exit"/>
    </vehicle>
    <vehicle id="L0-HDV-109" type="L0-HDV-Left-" depart="469.89">
        <route edges="left-long-approaching left-short-approaching top-exit"/>
    </vehicle>
    <vehicle id="L0-HDV-110" type="L0-HDV-" depart="473.10">
        <route edges="bottom-approaching top-exit"/>
    </vehicle>
    <vehicle id="L0-HDV-111" type="L0-HDV-" depart="476.31">
        <route edges="bottom-approaching right-exit"/>
    </vehicle>
    <vehicle id="L0-HDV-113" type="L0-HDV-" depart="482.73">
        <route edges="top-approaching left-exit-blockage left-exit"/>
    </vehicle>
    <vehicle id="L0-HDV-115" type="L0-HDV-" depart="489.15">
        <route edges="bottom-approaching top-exit"/>
    </vehicle>
    <vehicle id="L0-HDV-116" type="L0-HDV-" depart="492.36">
        <route edges="right-approaching top-exit"/>
    </vehicle>
    <vehicle id="L0-HDV-117" type="L0-HDV-" depart="495.57">
        <route edges="right-approaching bottom-exit"/>
    </vehicle>
    <vehicle id="L0-HDV-118" type="L0-HDV-" depart="498.78">
        <route edges="right-approaching top-exit"/>
    </vehicle>
    <vehicle id="L0-HDV-119" type="L0-HDV-" depart="501.99">
        <route edges="right-approaching left-exit-blockage left-exit"/>
    </vehicle>
    <vehicle id="L0-HDV-121" type="L0-HDV-" depart="508.41">
        <route edges="top-approaching left-exit-blockage left-exit"/>
    </vehicle>
    <vehicle id="L0-HDV-122" type="L0-HDV-" depart="511.62">
        <route edges="right-approaching left-exit-blockage left-exit"/>
    </vehicle>
    <vehicle id="L0-HDV-125" type="L0-HDV-" depart="521.25">
        <route edges="left-long-approaching left-short-approaching bottom-exit"/>
    </vehicle>
    <vehicle id="L0-HDV-127" type="L0-HDV-Straight-" depart="527.67">
        <route edges="left-long-approaching left-short-approaching right-exit"/>
    </vehicle>
    <vehicle id="L0-HDV-128" type="L0-HDV-" depart="530.88">
        <route edges="top-approaching right-exit"/>
    </vehicle>
    <vehicle id="L0-HDV-129" type="L0-HDV-" depart="534.09">
        <route edges="top-approaching bottom-exit"/>
    </vehicle>
    <vehicle id="L0-HDV-130" type="L0-HDV-Left-" depart="537.30">
        <route edges="left-long-approaching left-short-approaching top-exit"/>
    </vehicle>
    <vehicle id="L0-HDV-131" type="L0-HDV-" depart="540.51">
        <route edges="bottom-approaching left-exit-blockage left-exit"/>
    </vehicle>
    <vehicle id="L0-HDV-134" type="L0-HDV-" depart="550.14">
        <route edges="right-approaching bottom-exit"/>
    </vehicle>
    <vehicle id="L0-HDV-135" type="L0-HDV-" depart="553.35">
        <route edges="left-long-approaching left-short-approaching bottom-exit"/>
    </vehicle>
    <vehicle id="L0-HDV-137" type="L0-HDV-Straight-" depart="559.77">
        <route edges="left-long-approaching left-short-approaching right-exit"/>
    </vehicle>
    <vehicle id="L0-HDV-138" type="L0-HDV-" depart="562.98">
        <route edges="bottom-approaching right-exit"/>
    </vehicle>
    <vehicle id="L0-HDV-140" type="L0-HDV-" depart="569.40">
        <route edges="bottom-approaching right-exit"/>
    </vehicle>
    <vehicle id="L0-HDV-141" type="L0-HDV-" depart="572.61">
        <route edges="right-approaching left-exit-blockage left-exit"/>
    </vehicle>
    <vehicle id="L0-HDV-142" type="L0-HDV-" depart="575.82">
        <route edges="top-approaching left-exit-blockage left-exit"/>
    </vehicle>
    <vehicle id="L0-HDV-143" type="L0-HDV-" depart="579.03">
        <route edges="right-approaching left-exit-blockage left-exit"/>
    </vehicle>
    <vehicle id="L0-HDV-145" type="L0-HDV-" depart="585.45">
        <route edges="right-approaching bottom-exit"/>
    </vehicle>
    <vehicle id="L0-HDV-146" type="L0-HDV-" depart="588.66">
        <route edges="left-long-approaching left-short-approaching bottom-exit"/>
    </vehicle>
    <vehicle id="L0-HDV-147" type="L0-HDV-" depart="591.87">
        <route edges="right-approaching top-exit"/>
    </vehicle>
    <vehicle id="L0-HDV-148" type="L0-HDV-" depart="595.08">
        <route edges="bottom-approaching right-exit"/>
    </vehicle>
    <vehicle id="L0-HDV-150" type="L0-HDV-" depart="601.50">
        <route edges="right-approaching top-exit"/>
    </vehicle>
    <vehicle id="L0-HDV-151" type="L0-HDV-" depart="604.71">
        <route edges="right-approaching left-exit-blockage left-exit"/>
    </vehicle>
    <vehicle id="L0-HDV-152" type="L0-HDV-" depart="607.92">
        <route edges="top-approaching left-exit-blockage left-exit"/>
    </vehicle>
    <vehicle id="L0-HDV-155" type="L0-HDV-" depart="617.55">
        <route edges="bottom-approaching right-exit"/>
    </vehicle>
    <vehicle id="L0-HDV-156" type="L0-HDV-Straight-" depart="620.76">
        <route edges="left-long-approaching left-short-approaching right-exit"/>
    </vehicle>
    <vehicle id="L0-HDV-157" type="L0-HDV-" depart="623.97">
        <route edges="top-approaching right-exit"/>
    </vehicle>
    <vehicle id="L0-HDV-158" type="L0-HDV-" depart="627.18">
        <route edges="bottom-approaching left-exit-blockage left-exit"/>
    </vehicle>
    <vehicle id="L0-HDV-159" type="L0-HDV-" depart="630.39">
        <route edges="right-approaching top-exit"/>
    </vehicle>
    <vehicle id="L0-HDV-160" type="L0-HDV-" depart="633.60">
        <route edges="right-approaching top-exit"/>
    </vehicle>
    <vehicle id="L0-HDV-161" type="L0-HDV-" depart="636.81">
        <route edges="bottom-approaching top-exit"/>
    </vehicle>
    <vehicle id="L0-HDV-164" type="L0-HDV-" depart="646.44">
        <route edges="bottom-approaching top-exit"/>
    </vehicle>
    <vehicle id="L0-HDV-165" type="L0-HDV-" depart="649.65">
        <route edges="top-approaching bottom-exit"/>
    </vehicle>
    <vehicle id="L0-HDV-167" type="L0-HDV-" depart="656.07">
        <route edges="bottom-approaching top-exit"/>
    </vehicle>
    <vehicle id="L0-HDV-168" type="L0-HDV-" depart="659.28">
        <route edges="bottom-approaching right-exit"/>
    </vehicle>
    <vehicle id="L0-HDV-170" type="L0-HDV-" depart="665.70">
        <route edges="right-approaching left-exit-blockage left-exit"/>
    </vehicle>
    <vehicle id="L0-HDV-171" type="L0-HDV-" depart="668.91">
        <route edges="bottom-approaching top-exit"/>
    </vehicle>
    <vehicle id="L0-HDV-173" type="L0-HDV-Left-" depart="675.33">
        <route edges="left-long-approaching left-short-approaching top-exit"/>
    </vehicle>
    <vehicle id="L0-HDV-174" type="L0-HDV-" depart="678.54">
        <route edges="right-approaching top-exit"/>
    </vehicle>
    <vehicle id="L0-HDV-175" type="L0-HDV-Straight-" depart="681.75">
        <route edges="left-long-approaching left-short-approaching right-exit"/>
    </vehicle>
    <vehicle id="L0-HDV-177" type="L0-HDV-" depart="688.17">
        <route edges="left-long-approaching left-short-approaching bottom-exit"/>
    </vehicle>
    <vehicle id="L0-HDV-178" type="L0-HDV-" depart="691.38">
        <route edges="bottom-approaching top-exit"/>
    </vehicle>
    <vehicle id="L0-HDV-179" type="L0-HDV-" depart="694.59">
        <route edges="bottom-approaching right-exit"/>
    </vehicle>
    <vehicle id="L0-HDV-180" type="L0-HDV-" depart="697.80">
        <route edges="top-approaching left-exit-blockage left-exit"/>
    </vehicle>
    <vehicle id="L0-HDV-181" type="L0-HDV-" depart="701.01">
        <route edges="right-approaching top-exit"/>
    </vehicle>
    <vehicle id="L0-HDV-182" type="L0-HDV-" depart="704.22">
        <route edges="top-approaching bottom-exit"/>
    </vehicle>
    <vehicle id="L0-HDV-183" type="L0-HDV-" depart="707.43">
        <route edges="bottom-approaching left-exit-blockage left-exit"/>
    </vehicle>
    <vehicle id="L0-HDV-185" type="L0-HDV-" depart="713.85">
        <route edges="bottom-approaching right-exit"/>
    </vehicle>
    <vehicle id="L0-HDV-186" type="L0-HDV-" depart="717.06">
        <route edges="top-approaching left-exit-blockage left-exit"/>
    </vehicle>
    <vehicle id="L0-HDV-187" type="L0-HDV-" depart="720.27">
        <route edges="right-approaching left-exit-blockage left-exit"/>
    </vehicle>
    <vehicle id="L0-HDV-188" type="L0-HDV-Left-" depart="723.48">
        <route edges="left-long-approaching left-short-approaching top-exit"/>
    </vehicle>
    <vehicle id="L0-HDV-189" type="L0-HDV-Straight-" depart="726.69">
        <route edges="left-long-approaching left-short-approaching right-exit"/>
    </vehicle>
    <vehicle id="L0-HDV-190" type="L0-HDV-Straight-" depart="729.90">
        <route edges="left-long-approaching left-short-approaching right-exit"/>
    </vehicle>
    <vehicle id="L0-HDV-191" type="L0-HDV-" depart="733.11">
        <route edges="top-approaching bottom-exit"/>
    </vehicle>
    <vehicle id="L0-HDV-192" type="L0-HDV-" depart="736.32">
        <route edges="top-approaching left-exit-blockage left-exit"/>
    </vehicle>
    <vehicle id="L0-HDV-193" type="L0-HDV-" depart="739.53">
        <route edges="right-approaching top-exit"/>
    </vehicle>
    <vehicle id="L0-HDV-194" type="L0-HDV-" depart="742.74">
        <route edges="right-approaching left-exit-blockage left-exit"/>
    </vehicle>
    <vehicle id="L0-HDV-195" type="L0-HDV-" depart="745.95">
        <route edges="top-approaching bottom-exit"/>
    </vehicle>
    <vehicle id="L0-HDV-196" type="L0-HDV-" depart="749.16">
        <route edges="right-approaching left-exit-blockage left-exit"/>
    </vehicle>
    <vehicle id="L0-HDV-197" type="L0-HDV-" depart="752.37">
        <route edges="right-approaching top-exit"/>
    </vehicle>
    <vehicle id="L0-HDV-198" type="L0-HDV-" depart="755.58">
        <route edges="top-approaching right-exit"/>
    </vehicle>
    <vehicle id="L0-HDV-199" type="L0-HDV-" depart="758.79">
        <route edges="left-long-approaching left-short-approaching bottom-exit"/>
    </vehicle>
    <vehicle id="L0-HDV-200" type="L0-HDV-" depart="762.00">
        <route edges="left-long-approaching left-short-approaching bottom-exit"/>
    </vehicle>
    <vehicle id="L0-HDV-201" type="L0-HDV-Left-" depart="765.21">
        <route edges="left-long-approaching left-short-approaching top-exit"/>
    </vehicle>
    <vehicle id="L0-HDV-202" type="L0-HDV-" depart="768.42">
        <route edges="bottom-approaching top-exit"/>
    </vehicle>
    <vehicle id="L0-HDV-204" type="L0-HDV-" depart="774.84">
        <route edges="left-long-approaching left-short-approaching bottom-exit"/>
    </vehicle>
    <vehicle id="L0-HDV-205" type="L0-HDV-" depart="778.05">
        <route edges="left-long-approaching left-short-approaching bottom-exit"/>
    </vehicle>
    <vehicle id="L0-HDV-208" type="L0-HDV-Straight-" depart="787.68">
        <route edges="left-long-approaching left-short-approaching right-exit"/>
    </vehicle>
    <vehicle id="L0-HDV-209" type="L0-HDV-" depart="790.89">
        <route edges="top-approaching left-exit-blockage left-exit"/>
    </vehicle>
    <vehicle id="L0-HDV-211" type="L0-HDV-" depart="797.31">
        <route edges="bottom-approaching right-exit"/>
    </vehicle>
    <vehicle id="L0-HDV-213" type="L0-HDV-" depart="803.73">
        <route edges="top-approaching bottom-exit"/>
    </vehicle>
    <vehicle id="L0-HDV-214" type="L0-HDV-" depart="806.94">
        <route edges="top-approaching right-exit"/>
    </vehicle>
    <vehicle id="L0-HDV-215" type="L0-HDV-Left-" depart="810.15">
        <route edges="left-long-approaching left-short-approaching top-exit"/>
    </vehicle>
    <vehicle id="L0-HDV-216" type="L0-HDV-Left-" depart="813.36">
        <route edges="left-long-approaching left-short-approaching top-exit"/>
    </vehicle>
    <vehicle id="L0-HDV-218" type="L0-HDV-" depart="819.78">
        <route edges="right-approaching top-exit"/>
    </vehicle>
    <vehicle id="L0-HDV-222" type="L0-HDV-Straight-" depart="832.62">
        <route edges="left-long-approaching left-short-approaching right-exit"/>
    </vehicle>
    <vehicle id="L0-HDV-223" type="L0-HDV-" depart="835.83">
        <route edges="right-approaching left-exit-blockage left-exit"/>
    </vehicle>
    <vehicle id="L0-HDV-224" type="L0-HDV-" depart="839.04">
        <route edges="left-long-approaching left-short-approaching bottom-exit"/>
    </vehicle>
    <vehicle id="L0-HDV-225" type="L0-HDV-" depart="842.25">
        <route edges="top-approaching left-exit-blockage left-exit"/>
    </vehicle>
    <vehicle id="L0-HDV-226" type="L0-HDV-Left-" depart="845.46">
        <route edges="left-long-approaching left-short-approaching top-exit"/>
    </vehicle>
    <vehicle id="L0-HDV-227" type="L0-HDV-" depart="848.67">
        <route edges="bottom-approaching top-exit"/>
    </vehicle>
    <vehicle id="L0-HDV-231" type="L0-HDV-" depart="861.51">
        <route edges="top-approaching left-exit-blockage left-exit"/>
    </vehicle>
    <vehicle id="L0-HDV-232" type="L0-HDV-" depart="864.72">
        <route edges="right-approaching bottom-exit"/>
    </vehicle>
    <vehicle id="L0-HDV-233" type="L0-HDV-" depart="867.93">
        <route edges="top-approaching left-exit-blockage left-exit"/>
    </vehicle>
    <vehicle id="L0-HDV-234" type="L0-HDV-Straight-" depart="871.14">
        <route edges="left-long-approaching left-short-approaching right-exit"/>
    </vehicle>
    <vehicle id="L0-HDV-235" type="L0-HDV-" depart="874.35">
        <route edges="bottom-approaching left-exit-blockage left-exit"/>
    </vehicle>
    <vehicle id="L0-HDV-236" type="L0-HDV-" depart="877.56">
        <route edges="top-approaching bottom-exit"/>
    </vehicle>
    <vehicle id="L0-HDV-238" type="L0-HDV-" depart="883.98">
        <route edges="right-approaching left-exit-blockage left-exit"/>
    </vehicle>
    <vehicle id="L0-HDV-239" type="L0-HDV-" depart="887.19">
        <route edges="top-approaching left-exit-blockage left-exit"/>
    </vehicle>
    <vehicle id="L0-HDV-241" type="L0-HDV-" depart="893.61">
        <route edges="right-approaching left-exit-blockage left-exit"/>
    </vehicle>
    <vehicle id="L0-HDV-242" type="L0-HDV-Left-" depart="896.82">
        <route edges="left-long-approaching left-short-approaching top-exit"/>
    </vehicle>
    <vehicle id="L0-HDV-244" type="L0-HDV-" depart="903.24">
        <route edges="top-approaching left-exit-blockage left-exit"/>
    </vehicle>
    <vehicle id="L0-HDV-245" type="L0-HDV-" depart="906.45">
        <route edges="top-approaching bottom-exit"/>
    </vehicle>
    <vehicle id="L0-HDV-246" type="L0-HDV-" depart="909.66">
        <route edges="right-approaching top-exit"/>
    </vehicle>
    <vehicle id="L0-HDV-247" type="L0-HDV-Left-" depart="912.87">
        <route edges="left-long-approaching left-short-approaching top-exit"/>
    </vehicle>
    <vehicle id="L0-HDV-248" type="L0-HDV-" depart="916.08">
        <route edges="right-approaching left-exit-blockage left-exit"/>
    </vehicle>
    <vehicle id="L0-HDV-249" type="L0-HDV-" depart="919.29">
        <route edges="top-approaching left-exit-blockage left-exit"/>
    </vehicle>
    <vehicle id="L0-HDV-250" type="L0-HDV-Straight-" depart="922.50">
        <route edges="left-long-approaching left-short-approaching right-exit"/>
    </vehicle>
    <vehicle id="L0-HDV-251" type="L0-HDV-Left-" depart="925.71">
        <route edges="left-long-approaching left-short-approaching top-exit"/>
    </vehicle>
    <vehicle id="L0-HDV-253" type="L0-HDV-" depart="932.13">
        <route edges="right-approaching top-exit"/>
    </vehicle>
    <vehicle id="L0-HDV-256" type="L0-HDV-" depart="941.76">
        <route edges="right-approaching bottom-exit"/>
    </vehicle>
    <vehicle id="L0-HDV-257" type="L0-HDV-" depart="944.97">
        <route edges="bottom-approaching top-exit"/>
    </vehicle>
    <vehicle id="L0-HDV-258" type="L0-HDV-" depart="948.18">
        <route edges="bottom-approaching top-exit"/>
    </vehicle>
    <vehicle id="L0-HDV-259" type="L0-HDV-" depart="951.39">
        <route edges="right-approaching top-exit"/>
    </vehicle>
    <vehicle id="L0-HDV-260" type="L0-HDV-" depart="954.60">
        <route edges="bottom-approaching left-exit-blockage left-exit"/>
    </vehicle>
    <vehicle id="L0-HDV-261" type="L0-HDV-" depart="957.81">
        <route edges="top-approaching bottom-exit"/>
    </vehicle>
    <vehicle id="L0-HDV-262" type="L0-HDV-" depart="961.02">
        <route edges="bottom-approaching left-exit-blockage left-exit"/>
    </vehicle>
    <vehicle id="L0-HDV-264" type="L0-HDV-" depart="967.44">
        <route edges="right-approaching bottom-exit"/>
    </vehicle>
    <vehicle id="L0-HDV-265" type="L0-HDV-" depart="970.65">
        <route edges="top-approaching right-exit"/>
    </vehicle>
    <vehicle id="L0-HDV-266" type="L0-HDV-" depart="973.86">
        <route edges="bottom-approaching top-exit"/>
    </vehicle>
    <vehicle id="L0-HDV-267" type="L0-HDV-" depart="977.07">