<?xml version="1.0" ?><!-- generated on 04/01/21 04:52:27 by Eclipse SUMO duarouter Version 1.8.0
<configuration xmlns:xsi="http://www.w3.org/2001/XMLSchema-instance" xsi:noNamespaceSchemaLocation="http://sumo.dlr.de/xsd/duarouterConfiguration.xsd">

    <input>
        <net-file value="Collision/CollisionIntersection.net.xml"/>
        <route-files value="trips.trips.xml"/>
    </input>

    <output>
        <output-file value="Collision/RealTMSPenetration2/Route-Files/L2-AV-Route.rou.xml"/>
        <alternatives-output value="Collision/RealTMSPenetration2/Route-Files/L2-AV-Route.rou.alt.xml"/>
    </output>

    <time>
        <begin value="120"/>
        <end value="3600"/>
    </time>

    <report>
        <no-warnings value="true"/>
        <ignore-errors value="true"/>
        <no-step-log value="true"/>
    </report>

</configuration>
--><routes xmlns:xsi="http://www.w3.org/2001/XMLSchema-instance" xsi:noNamespaceSchemaLocation="http://sumo.dlr.de/xsd/routes_file.xsd">
    <vehicle id="L2-AV-1" type="L2-AV-" depart="126.20">
        <route edges="bottom-approaching top-exit"/>
    </vehicle>
    <vehicle id="L2-AV-3" type="L2-AV-" depart="138.60">
        <route edges="top-approaching bottom-exit"/>
    </vehicle>
    <vehicle id="L2-AV-5" type="L2-AV-" depart="151.00">
        <route edges="bottom-approaching left-exit-blockage left-exit"/>
    </vehicle>
    <vehicle id="L2-AV-6" type="L2-AV-" depart="157.20">
        <route edges="right-approaching left-exit-blockage left-exit"/>
    </vehicle>
    <vehicle id="L2-AV-7" type="L2-AV-" depart="163.40">
        <route edges="right-approaching bottom-exit"/>
    </vehicle>
    <vehicle id="L2-AV-9" type="L2-AV-" depart="175.80">
        <route edges="right-approaching top-exit"/>
    </vehicle>
    <vehicle id="L2-AV-10" type="L2-AV-" depart="182.00">
        <route edges="right-approaching top-exit"/>
    </vehicle>
    <vehicle id="L2-AV-11" type="L2-AV-" depart="188.20">
        <route edges="left-long-approaching left-short-approaching right-exit"/>
    </vehicle>
    <vehicle id="L2-AV-12" type="L2-AV-" depart="194.40">
        <route edges="bottom-approaching left-exit-blockage left-exit"/>
    </vehicle>
    <vehicle id="L2-AV-14" type="L2-AV-Right-" depart="206.80">
        <route edges="left-long-approaching left-short-approaching bottom-exit"/>
    </vehicle>
    <vehicle id="L2-AV-15" type="L2-AV-Right-" depart="213.00">
        <route edges="left-long-approaching left-short-approaching bottom-exit"/>
    </vehicle>
    <vehicle id="L2-AV-16" type="L2-AV-Left-" depart="219.20">
        <route edges="left-long-approaching left-short-approaching top-exit"/>
    </vehicle>
    <vehicle id="L2-AV-17" type="L2-AV-" depart="225.40">
        <route edges="bottom-approaching top-exit"/>
    </vehicle>
    <vehicle id="L2-AV-18" type="L2-AV-" depart="231.60">
        <route edges="top-approaching bottom-exit"/>
    </vehicle>
    <vehicle id="L2-AV-20" type="L2-AV-" depart="244.00">
        <route edges="bottom-approaching left-exit-blockage left-exit"/>
    </vehicle>
    <vehicle id="L2-AV-21" type="L2-AV-" depart="250.20">
        <route edges="top-approaching bottom-exit"/>
    </vehicle>
    <vehicle id="L2-AV-22" type="L2-AV-" depart="256.40">
        <route edges="right-approaching bottom-exit"/>
    </vehicle>
    <vehicle id="L2-AV-23" type="L2-AV-" depart="262.60">
        <route edges="right-approaching top-exit"/>
    </vehicle>
    <vehicle id="L2-AV-25" type="L2-AV-" depart="275.00">
        <route edges="bottom-approaching right-exit"/>
    </vehicle>
    <vehicle id="L2-AV-27" type="L2-AV-Left-" depart="287.40">
        <route edges="left-long-approaching left-short-approaching top-exit"/>
    </vehicle>
    <vehicle id="L2-AV-29" type="L2-AV-" depart="299.80">
        <route edges="right-approaching bottom-exit"/>
    </vehicle>
    <vehicle id="L2-AV-30" type="L2-AV-" depart="306.00">
        <route edges="right-approaching bottom-exit"/>
    </vehicle>
    <vehicle id="L2-AV-31" type="L2-AV-" depart="312.20">
        <route edges="right-approaching top-exit"/>
    </vehicle>
    <vehicle id="L2-AV-32" type="L2-AV-" depart="318.40">
        <route edges="bottom-approaching right-exit"/>
    </vehicle>
    <vehicle id="L2-AV-33" type="L2-AV-" depart="324.60">
        <route edges="right-approaching bottom-exit"/>
    </vehicle>
    <vehicle id="L2-AV-34" type="L2-AV-Left-" depart="330.80">
        <route edges="left-long-approaching left-short-approaching top-exit"/>
    </vehicle>
    <vehicle id="L2-AV-35" type="L2-AV-" depart="337.00">
        <route edges="top-approaching bottom-exit"/>
    </vehicle>
    <vehicle id="L2-AV-36" type="L2-AV-" depart="343.20">
        <route edges="right-approaching top-exit"/>
    </vehicle>
    <vehicle id="L2-AV-37" type="L2-AV-" depart="349.40">
        <route edges="bottom-approaching right-exit"/>
    </vehicle>
    <vehicle id="L2-AV-38" type="L2-AV-" depart="355.60">
        <route edges="bottom-approaching left-exit-blockage left-exit"/>
    </vehicle>
    <vehicle id="L2-AV-40" type="L2-AV-" depart="368.00">
        <route edges="top-approaching bottom-exit"/>
    </vehicle>
    <vehicle id="L2-AV-41" type="L2-AV-Left-" depart="374.20">
        <route edges="left-long-approaching left-short-approaching top-exit"/>
    </vehicle>
    <vehicle id="L2-AV-42" type="L2-AV-" depart="380.40">
        <route edges="right-approaching left-exit-blockage left-exit"/>
    </vehicle>
    <vehicle id="L2-AV-43" type="L2-AV-Left-" depart="386.60">
        <route edges="left-long-approaching left-short-approaching top-exit"/>
    </vehicle>
    <vehicle id="L2-AV-44" type="L2-AV-" depart="392.80">
        <route edges="right-approaching bottom-exit"/>
    </vehicle>
    <vehicle id="L2-AV-45" type="L2-AV-" depart="399.00">
        <route edges="top-approaching left-exit-blockage left-exit"/>
    </vehicle>
    <vehicle id="L2-AV-46" type="L2-AV-Right-" depart="405.20">
        <route edges="left-long-approaching left-short-approaching bottom-exit"/>
    </vehicle>
    <vehicle id="L2-AV-48" type="L2-AV-" depart="417.60">
        <route edges="bottom-approaching right-exit"/>
    </vehicle>
    <vehicle id="L2-AV-49" type="L2-AV-" depart="423.80">
        <route edges="bottom-approaching top-exit"/>
    </vehicle>
    <vehicle id="L2-AV-50" type="L2-AV-" depart="430.00">
        <route edges="bottom-approaching top-exit"/>
    </vehicle>
    <vehicle id="L2-AV-51" type="L2-AV-" depart="436.20">
        <route edges="top-approaching left-exit-blockage left-exit"/>
    </vehicle>
    <vehicle id="L2-AV-52" type="L2-AV-" depart="442.40">
        <route edges="right-approaching left-exit-blockage left-exit"/>
    </vehicle>
    <vehicle id="L2-AV-53" type="L2-AV-" depart="448.60">
        <route edges="right-approaching left-exit-blockage left-exit"/>
    </vehicle>
    <vehicle id="L2-AV-54" type="L2-AV-" depart="454.80">
        <route edges="bottom-approaching top-exit"/>
    </vehicle>
    <vehicle id="L2-AV-56" type="L2-AV-" depart="467.20">
        <route edges="top-approaching left-exit-blockage left-exit"/>
    </vehicle>
    <vehicle id="L2-AV-57" type="L2-AV-" depart="473.40">
        <route edges="right-approaching bottom-exit"/>
    </vehicle>
    <vehicle id="L2-AV-58" type="L2-AV-" depart="479.60">
        <route edges="top-approaching left-exit-blockage left-exit"/>
    </vehicle>
    <vehicle id="L2-AV-59" type="L2-AV-" depart="485.80">
        <route edges="bottom-approaching top-exit"/>
    </vehicle>
    <vehicle id="L2-AV-60" type="L2-AV-" depart="492.00">
        <route edges="bottom-approaching top-exit"/>
    </vehicle>
    <vehicle id="L2-AV-61" type="L2-AV-" depart="498.20">
        <route edges="top-approaching right-exit"/>
    </vehicle>
    <vehicle id="L2-AV-63" type="L2-AV-" depart="510.60">
        <route edges="bottom-approaching left-exit-blockage left-exit"/>
    </vehicle>
    <vehicle id="L2-AV-64" type="L2-AV-" depart="516.80">
        <route edges="right-approaching top-exit"/>
    </vehicle>
    <vehicle id="L2-AV-65" type="L2-AV-Right-" depart="523.00">
        <route edges="left-long-approaching left-short-approaching bottom-exit"/>
    </vehicle>
    <vehicle id="L2-AV-66" type="L2-AV-" depart="529.20">
        <route edges="right-approaching bottom-exit"/>
    </vehicle>
    <vehicle id="L2-AV-67" type="L2-AV-" depart="535.40">
        <route edges="bottom-approaching right-exit"/>
    </vehicle>
    <vehicle id="L2-AV-68" type="L2-AV-" depart="541.60">
        <route edges="right-approaching bottom-exit"/>
    </vehicle>
    <vehicle id="L2-AV-69" type="L2-AV-" depart="547.80">
        <route edges="left-long-approaching left-short-approaching right-exit"/>
    </vehicle>
    <vehicle id="L2-AV-70" type="L2-AV-" depart="554.00">
        <route edges="top-approaching left-exit-blockage left-exit"/>
    </vehicle>
    <vehicle id="L2-AV-71" type="L2-AV-" depart="560.20">
        <route edges="top-approaching bottom-exit"/>
    </vehicle>
    <vehicle id="L2-AV-72" type="L2-AV-" depart="566.40">
        <route edges="right-approaching top-exit"/>
    </vehicle>
    <vehicle id="L2-AV-73" type="L2-AV-" depart="572.60">
        <route edges="top-approaching left-exit-blockage left-exit"/>
    </vehicle>
    <vehicle id="L2-AV-75" type="L2-AV-" depart="585.00">
        <route edges="right-approaching bottom-exit"/>
    </vehicle>
    <vehicle id="L2-AV-76" type="L2-AV-" depart="591.20">
        <route edges="right-approaching bottom-exit"/>
    </vehicle>
    <vehicle id="L2-AV-77" type="L2-AV-" depart="597.40">
        <route edges="top-approaching bottom-exit"/>
    </vehicle>
    <vehicle id="L2-AV-79" type="L2-AV-" depart="609.80">
        <route edges="left-long-approaching left-short-approaching right-exit"/>
    </vehicle>
    <vehicle id="L2-AV-80" type="L2-AV-Right-" depart="616.00">
        <route edges="left-long-approaching left-short-approaching bottom-exit"/>
    </vehicle>
    <vehicle id="L2-AV-81" type="L2-AV-Left-" depart="622.20">
        <route edges="left-long-approaching left-short-approaching top-exit"/>
    </vehicle>
    <vehicle id="L2-AV-82" type="L2-AV-" depart="628.40">
        <route edges="right-approaching top-exit"/>
    </vehicle>
    <vehicle id="L2-AV-83" type="L2-AV-" depart="634.60">
        <route edges="bottom-approaching top-exit"/>
    </vehicle>
    <vehicle id="L2-AV-84" type="L2-AV-" depart="640.80">
        <route edges="top-approaching right-exit"/>
    </vehicle>
    <vehicle id="L2-AV-86" type="L2-AV-" depart="653.20">
        <route edges="top-approaching bottom-exit"/>
    </vehicle>
    <vehicle id="L2-AV-88" type="L2-AV-" depart="665.60">
        <route edges="left-long-approaching left-short-approaching right-exit"/>
    </vehicle>
    <vehicle id="L2-AV-89" type="L2-AV-" depart="671.80">
        <route edges="right-approaching bottom-exit"/>
    </vehicle>
    <vehicle id="L2-AV-90" type="L2-AV-" depart="678.00">
        <route edges="right-approaching left-exit-blockage left-exit"/>
    </vehicle>
    <vehicle id="L2-AV-91" type="L2-AV-" depart="684.20">
        <route edges="left-long-approaching left-short-approaching right-exit"/>
    </vehicle>
    <vehicle id="L2-AV-92" type="L2-AV-" depart="690.40">
        <route edges="bottom-approaching right-exit"/>
    </vehicle>
    <vehicle id="L2-AV-93" type="L2-AV-Left-" depart="696.60">
        <route edges="left-long-approaching left-short-approaching top-exit"/>
    </vehicle>
    <vehicle id="L2-AV-94" type="L2-AV-" depart="702.80">
        <route edges="bottom-approaching top-exit"/>
    </vehicle>
    <vehicle id="L2-AV-96" type="L2-AV-" depart="715.20">
        <route edges="top-approaching bottom-exit"/>
    </vehicle>
    <vehicle id="L2-AV-98" type="L2-AV-" depart="727.60">
        <route edges="right-approaching left-exit-blockage left-exit"/>
    </vehicle>
    <vehicle id="L2-AV-100" type="L2-AV-" depart="740.00">
        <route edges="right-approaching bottom-exit"/>
    </vehicle>
    <vehicle id="L2-AV-101" type="L2-AV-" depart="746.20">
        <route edges="bottom-approaching left-exit-blockage left-exit"/>
    </vehicle>
    <vehicle id="L2-AV-102" type="L2-AV-" depart="752.40">
        <route edges="left-long-approaching left-short-approaching right-exit"/>
    </vehicle>
    <vehicle id="L2-AV-103" type="L2-AV-" depart="758.60">
        <route edges="bottom-approaching top-exit"/>
    </vehicle>
    <vehicle id="L2-AV-104" type="L2-AV-Left-" depart="764.80">
        <route edges="left-long-approaching left-short-approaching top-exit"/>
    </vehicle>
    <vehicle id="L2-AV-105" type="L2-AV-" depart="771.00">
        <route edges="bottom-approaching top-exit"/>
    </vehicle>
    <vehicle id="L2-AV-106" type="L2-AV-" depart="777.20">
        <route edges="right-approaching top-exit"/>
    </vehicle>
    <vehicle id="L2-AV-108" type="L2-AV-" depart="789.60">
        <route edges="bottom-approaching left-exit-blockage left-exit"/>
    </vehicle>
    <vehicle id="L2-AV-109" type="L2-AV-" depart="795.80">
        <route edges="bottom-approaching top-exit"/>
    </vehicle>
    <vehicle id="L2-AV-113" type="L2-AV-" depart="820.60">
        <route edges="left-long-approaching left-short-approaching right-exit"/>
    </vehicle>
    <vehicle id="L2-AV-114" type="L2-AV-" depart="826.80">
        <route edges="left-long-approaching left-short-approaching right-exit"/>
    </vehicle>
    <vehicle id="L2-AV-115" type="L2-AV-" depart="833.00">
        <route edges="left-long-approaching left-short-approaching right-exit"/>
    </vehicle>
    <vehicle id="L2-AV-116" type="L2-AV-" depart="839.20">
        <route edges="bottom-approaching left-exit-blockage left-exit"/>
    </vehicle>
    <vehicle id="L2-AV-117" type="L2-AV-" depart="845.40">
        <route edges="right-approaching bottom-exit"/>
    </vehicle>
    <vehicle id="L2-AV-118" type="L2-AV-Left-" depart="851.60">
        <route edges="left-long-approaching left-short-approaching top-exit"/>
    </vehicle>
    <vehicle id="L2-AV-120" type="L2-AV-" depart="864.00">
        <route edges="top-approaching bottom-exit"/>
    </vehicle>
    <vehicle id="L2-AV-122" type="L2-AV-" depart="876.40">
        <route edges="right-approaching bottom-exit"/>
    </vehicle>
    <vehicle id="L2-AV-123" type="L2-AV-" depart="882.60">
        <route edges="bottom-approaching left-exit-blockage left-exit"/>
    </vehicle>
    <vehicle id="L2-AV-124" type="L2-AV-Left-" depart="888.80">
        <route edges="left-long-approaching left-short-approaching top-exit"/>
    </vehicle>
    <vehicle id="L2-AV-128" type="L2-AV-" depart="913.60">
        <route edges="top-approaching bottom-exit"/>
    </vehicle>
    <vehicle id="L2-AV-130" type="L2-AV-" depart="926.00">
        <route edges="right-approaching left-exit-blockage left-exit"/>
    </vehicle>
    <vehicle id="L2-AV-131" type="L2-AV-Left-" depart="932.20">
        <route edges="left-long-approaching left-short-approaching top-exit"/>
    </vehicle>
    <vehicle id="L2-AV-132" type="L2-AV-Right-" depart="938.40">
        <route edges="left-long-approaching left-short-approaching bottom-exit"/>
    </vehicle>
    <vehicle id="L2-AV-135" type="L2-AV-Right-" depart="957.00">
        <route edges="left-long-approaching left-short-approaching bottom-exit"/>
    </vehicle>
    <vehicle id="L2-AV-137" type="L2-AV-" depart="969.40">
        <route edges="bottom-approaching right-exit"/>
    </vehicle>
    <vehicle id="L2-AV-138" type="L2-AV-" depart="975.60">
        <route edges="bottom-approaching right-exit"/>
    </vehicle>
    <vehicle id="L2-AV-139" type="L2-AV-" depart="981.80">
        <route edges="right-approaching bottom-exit"/>
    </vehicle>
    <vehicle id="L2-AV-140" type="L2-AV-" depart="988.00">
        <route edges="right-approaching left-exit-blockage left-exit"/>
    </vehicle>
    <vehicle id="L2-AV-141" type="L2-AV-" depart="994.20">
        <route edges="left-long-approaching left-short-approaching right-exit"/>
    </vehicle>
    <vehicle id="L2-AV-143" type="L2-AV-" depart="1006.60">
        <route edges="right-approaching bottom-exit"/>
    </vehicle>
    <vehicle id="L2-AV-144" type="L2-AV-" depart="1012.80">
        <route edges="right-approaching left-exit-blockage left-exit"/>
    </vehicle>
    <vehicle id="L2-AV-145" type="L2-AV-" depart="1019.00">
        <route edges="bottom-approaching right-exit"/>
    </vehicle>
    <vehicle id="L2-AV-146" type="L2-AV-Left-" depart="1025.20">
        <route edges="left-long-approaching left-short-approaching top-exit"/>
    </vehicle>
    <vehicle id="L2-AV-147" type="L2-AV-Left-" depart="1031.40">
        <route edges="left-long-approaching left-short-approaching top-exit"/>
    </vehicle>
    <vehicle id="L2-AV-148" type="L2-AV-" depart="1037.60">
        <route edges="right-approaching bottom-exit"/>
    </vehicle>
    <vehicle id="L2-AV-149" type="L2-AV-" depart="1043.80">
        <route edges="right-approaching left-exit-blockage left-exit"/>
    </vehicle>
    <vehicle id="L2-AV-150" type="L2-AV-" depart="1050.00">
        <route edges="right-approaching bottom-exit"/>
    </vehicle>
    <vehicle id="L2-AV-151" type="L2-AV-" depart="1056.20">
        <route edges="bottom-approaching top-exit"/>
    </vehicle>
    <vehicle id="L2-AV-155" type="L2-AV-" depart="1081.00">
        <route edges="right-approaching left-exit-blockage left-exit"/>
    </vehicle>
    <vehicle id="L2-AV-156" type="L2-AV-" depart="1087.20">
        <route edges="top-approaching right-exit"/>
    </vehicle>
    <vehicle id="L2-AV-157" type="L2-AV-" depart="1093.40">
        <route edges="bottom-approaching right-exit"/>
    </vehicle>
    <vehicle id="L2-AV-160" type="L2-AV-" depart="1112.00">
        <route edges="bottom-approaching right-exit"/>
    </vehicle>
    <vehicle id="L2-AV-161" type="L2-AV-" depart="1118.20">
        <route edges="top-approaching right-exit"/>
    </vehicle>
    <vehicle id="L2-AV-162" type="L2-AV-" depart="1124.40">
        <route edges="bottom-approaching right-exit"/>
    </vehicle>
    <vehicle id="L2-AV-163" type="L2-AV-" depart="1130.60">
        <route edges="bottom-approaching left-exit-blockage left-exit"/>
    </vehicle>
    <vehicle id="L2-AV-164" type="L2-AV-" depart="1136.80">
        <route edges="top-approaching right-exit"/>
    </vehicle>
    <vehicle id="L2-AV-166" type="L2-AV-Right-" depart="1149.20">
        <route edges="left-long-approaching left-short-approaching bottom-exit"/>
    </vehicle>
    <vehicle id="L2-AV-167" type="L2-AV-" depart="1155.40">
        <route edges="left-long-approaching left-short-approaching right-exit"/>
    </vehicle>
    <vehicle id="L2-AV-168" type="L2-AV-" depart="1161.60">
        <route edges="bottom-approaching left-exit-blockage left-exit"/>
    </vehicle>
    <vehicle id="L2-AV-169" type="L2-AV-" depart="1167.80">
        <route edges="right-approaching left-exit-blockage left-exit"/>
    </vehicle>
    <vehicle id="L2-AV-171" type="L2-AV-" depart="1180.20">
        <route edges="top-approaching bottom-exit"/>
    </vehicle>
    <vehicle id="L2-AV-172" type="L2-AV-" depart="1186.40">
        <route edges="bottom-approaching top-exit"/>
    </vehicle>
    <vehicle id="L2-AV-173" type="L2-AV-" depart="1192.60">
        <route edges="right-approaching bottom-exit"/>
    </vehicle>
    <vehicle id="L2-AV-175" type="L2-AV-" depart="1205.00">
        <route edges="right-approaching top-exit"/>
    </vehicle>
    <vehicle id="L2-AV-177" type="L2-AV-" depart="1217.40">
        <route edges="right-approaching left-exit-blockage left-exit"/>
    </vehicle>
    <vehicle id="L2-AV-179" type="L2-AV-" depart="1229.80">
        <route edges="top-approaching right-exit"/>
    </vehicle>
    <vehicle id="L2-AV-180" type="L2-AV-Right-" depart="1236.00">
        <route edges="left-long-approaching left-short-approaching bottom-exit"/>
    </vehicle>
    <vehicle id="L2-AV-181" type="L2-AV-" depart="1242.20">
        <route edges="top-approaching left-exit-blockage left-exit"/>
    </vehicle>
    <vehicle id="L2-AV-182" type="L2-AV-" depart="1248.40">
        <route edges="left-long-approaching left-short-approaching right-exit"/>
    </vehicle>
    <vehicle id="L2-AV-183" type="L2-AV-" depart="1254.60">
        <route edges="top-approaching right-exit"/>
    </vehicle>
    <vehicle id="L2-AV-185" type="L2-AV-" depart="1267.00">
        <route edges="bottom-approaching left-exit-blockage left-exit"/>
    </vehicle>
    <vehicle id="L2-AV-187" type="L2-AV-" depart="1279.40">
        <route edges="top-approaching bottom-exit"/>
    </vehicle>
    <vehicle id="L2-AV-188" type="L2-AV-" depart="1285.60">
        <route edges="right-approaching top-exit"/>
    </vehicle>
    <vehicle id="L2-AV-190" type="L2-AV-" depart="1298.00">
        <route edges="top-approaching bottom-exit"/>
    </vehicle>
    <vehicle id="L2-AV-191" type="L2-AV-" depart="1304.20">
        <route edges="bottom-approaching top-exit"/>
    </vehicle>
    <vehicle id="L2-AV-192" type="L2-AV-" depart="1310.40">
        <route edges="right-approaching bottom-exit"/>
    </vehicle>
    <vehicle id="L2-AV-193" type="L2-AV-" depart="1316.60">
        <route edges="top-approaching left-exit-blockage left-exit"/>
    </vehicle>
    <vehicle id="L2-AV-194" type="L2-AV-" depart="1322.80">
        <route edges="bottom-approaching left-exit-blockage left-exit"/>
    </vehicle>
    <vehicle id="L2-AV-195" type="L2-AV-" depart="1329.00">
        <route edges="bottom-approaching left-exit-blockage left-exit"/>
    </vehicle>
    <vehicle id="L2-AV-196" type="L2-AV-" depart="1335.20">
        <route edges="top-approaching left-exit-blockage left-exit"/>
    </vehicle>
    <vehicle id="L2-AV-197" type="L2-AV-" depart="1341.40">
        <route edges="top-approaching bottom-exit"/>
    </vehicle>
    <vehicle id="L2-AV-199" type="L2-AV-" depart="1353.80">
        <route edges="right-approaching bottom-exit"/>
    </vehicle>
    <vehicle id="L2-AV-201" type="L2-AV-" depart="1366.20">
        <route edges="right-approaching top-exit"/>
    </vehicle>
    <vehicle id="L2-AV-203" type="L2-AV-" depart="1378.60">
        <route edges="bottom-approaching left-exit-blockage left-exit"/>
    </vehicle>
    <vehicle id="L2-AV-204" type="L2-AV-" depart="1384.80">
        <route edges="top-approaching left-exit-blockage left-exit"/>
    </vehicle>
    <vehicle id="L2-AV-206" type="L2-AV-" depart="1397.20">
        <route edges="bottom-approaching top-exit"/>
    </vehicle>
    <vehicle id="L2-AV-207" type="L2-AV-" depart="1403.40">
        <route edges="right-approaching bottom-exit"/>
    </vehicle>
    <vehicle id="L2-AV-208" type="L2-AV-" depart="1409.60">
        <route edges="top-approaching right-exit"/>
    </vehicle>
    <vehicle id="L2-AV-209" type="L2-AV-" depart="1415.80">
        <route edges="left-long-approaching left-short-approaching right-exit"/>
    </vehicle>
    <vehicle id="L2-AV-210" type="L2-AV-" depart="1422.00">
        <route edges="top-approaching left-exit-blockage left-exit"/>
    </vehicle>
    <vehicle id="L2-AV-212" type="L2-AV-" depart="1434.40">
        <route edges="bottom-approaching right-exit"/>
    </vehicle>
    <vehicle id="L2-AV-213" type="L2-AV-Left-" depart="1440.60">
        <route edges="left-long-approaching left-short-approaching top-exit"/>
    </vehicle>
    <vehicle id="L2-AV-215" type="L2-AV-Right-" depart="1453.00">
        <route edges="left-long-approaching left-short-approaching bottom-exit"/>
    </vehicle>
    <vehicle id="L2-AV-216" type="L2-AV-Right-" depart="1459.20">
        <route edges="left-long-approaching left-short-approaching bottom-exit"/>
    </vehicle>
    <vehicle id="L2-AV-217" type="L2-AV-" depart="1465.40">
        <route edges="bottom-approaching right-exit"/>
    </vehicle>
    <vehicle id="L2-AV-218" type="L2-AV-" depart="1471.60">
        <route edges="top-approaching left-exit-blockage left-exit"/>
    </vehicle>
    <vehicle id="L2-AV-219" type="L2-AV-" depart="1477.80">
        <route edges="right-approaching left-exit-blockage left-exit"/>
    </vehicle>
    <vehicle id="L2-AV-220" type="L2-AV-" depart="1484.00">
        <route edges="top-approaching right-exit"/>
    </vehicle>
    <vehicle id="L2-AV-221" type="L2-AV-" depart="1490.20">
        <route edges="bottom-approaching right-exit"/>
    </vehicle>
    <vehicle id="L2-AV-223" type="L2-AV-" depart="1502.60">
        <route edges="bottom-approaching top-exit"/>
    </vehicle>
    <vehicle id="L2-AV-224" type="L2-AV-" depart="1508.80">
        <route edges="right-approaching left-exit-blockage left-exit"/>
    </vehicle>
    <vehicle id="L2-AV-226" type="L2-AV-" depart="1521.20">
        <route edges="bottom-approaching right-exit"/>
    </vehicle>
    <vehicle id="L2-AV-227" type="L2-AV-" depart="1527.40">
        <route edges="right-approaching top-exit"/>
    </vehicle>
    <vehicle id="L2-AV-228" type="L2-AV-" depart="1533.60">
        <route edges="bottom-approaching right-exit"/>
    </vehicle>
    <vehicle id="L2-AV-229" type="L2-AV-" depart="1539.80">
        <route edges="right-approaching top-exit"/>
    </vehicle>
    <vehicle id="L2-AV-230" type="L2-AV-" depart="1546.00">
        <route edges="left-long-approaching left-short-approaching right-exit"/>
    </vehicle>
    <vehicle id="L2-AV-231" type="L2-AV-" depart="1552.20">
        <route edges="top-approaching left-exit-blockage left-exit"/>
    </vehicle>
    <vehicle id="L2-AV-232" type="L2-AV-" depart="1558.40">
        <route edges="right-approaching top-exit"/>
    </vehicle>
    <vehicle id="L2-AV-233" type="L2-AV-" depart="1564.60">
        <route edges="bottom-approaching top-exit"/>
    </vehicle>
    <vehicle id="L2-AV-235" type="L2-AV-Left-" depart="1577.00">
        <route edges="left-long-approaching left-short-approaching top-exit"/>
    </vehicle>
    <vehicle id="L2-AV-237" type="L2-AV-" depart="1589.40">
        <route edges="bottom-approaching top-exit"/>
    </vehicle>
    <vehicle id="L2-AV-238" type="L2-AV-" depart="1595.60">
        <route edges="top-approaching right-exit"/>
    </vehicle>
    <vehicle id="L2-AV-239" type="L2-AV-" depart="1601.80">
        <route edges="bottom-approaching left-exit-blockage left-exit"/>
    </vehicle>
    <vehicle id="L2-AV-240" type="L2-AV-Right-" depart="1608.00">
        <route edges="left-long-approaching left-short-approaching bottom-exit"/>
    </vehicle>
    <vehicle id="L2-AV-241" type="L2-AV-" depart="1614.20">
        <route edges="top-approaching left-exit-blockage left-exit"/>
    </vehicle>
    <vehicle id="L2-AV-242" type="L2-AV-" depart="1620.40">
        <route edges="top-approaching bottom-exit"/>
    </vehicle>
    <vehicle id="L2-AV-243" type="L2-AV-" depart="1626.60">
        <route edges="right-approaching top-exit"/>
    </vehicle>
    <vehicle id="L2-AV-244" type="L2-AV-" depart="1632.80">
        <route edges="right-approaching left-exit-blockage left-exit"/>
    </vehicle>
    <vehicle id="L2-AV-245" type="L2-AV-" depart="1639.00">
        <route edges="bottom-approaching left-exit-blockage left-exit"/>
    </vehicle>
    <vehicle id="L2-AV-246" type="L2-AV-Left-" depart="1645.20">
        <route edges="left-long-approaching left-short-approaching top-exit"/>
    </vehicle>
    <vehicle id="L2-AV-248" type="L2-AV-" depart="1657.60">
        <route edges="top-approaching bottom-exit"/>
    </vehicle>
    <vehicle id="L2-AV-249" type="L2-AV-" depart="1663.80">
        <route edges="bottom-approaching left-exit-blockage left-exit"/>
    </vehicle>
    <vehicle id="L2-AV-251" type="L2-AV-" depart="1676.20">
        <route edges="right-approaching bottom-exit"/>
    </vehicle>
    <vehicle id="L2-AV-252" type="L2-AV-" depart="1682.40">
        <route edges="right-approaching left-exit-blockage left-exit"/>
    </vehicle>
    <vehicle id="L2-AV-253" type="L2-AV-Left-" depart="1688.60">
        <route edges="left-long-approaching left-short-approaching top-exit"/>
    </vehicle>
    <vehicle id="L2-AV-254" type="L2-AV-" depart="1694.80">
        <route edges="bottom-approaching top-exit"/>
    </vehicle>
    <vehicle id="L2-AV-256" type="L2-AV-" depart="1707.20">
        <route edges="bottom-approaching right-exit"/>
    </vehicle>
    <vehicle id="L2-AV-257" type="L2-AV-" depart="1713.40">
        <route edges="top-approaching bottom-exit"/>
    </vehicle>
    <vehicle id="L2-AV-258" type="L2-AV-" depart="1719.60">
        <route edges="left-long-approaching left-short-approaching right-exit"/>
    </vehicle>
    <vehicle id="L2-AV-259" type="L2-AV-" depart="1725.80">
        <route edges="left-long-approaching left-short-approaching right-exit"/>
    </vehicle>
    <vehicle id="L2-AV-260" type="L2-AV-" depart="1732.00">
        <route edges="right-approaching left-exit-blockage left-exit"/>
    </vehicle>
    <vehicle id="L2-AV-261" type="L2-AV-" depart="1738.20">
        <route edges="right-approaching top-exit"/>
    </vehicle>
    <vehicle id="L2-AV-262" type="L2-AV-" depart="1744.40">
        <route edges="left-long-approaching left-short-approaching right-exit"/>
    </vehicle>
    <vehicle id="L2-AV-263" type="L2-AV-" depart="1750.60">
        <route edges="right-approaching left-exit-blockage left-exit"/>
    </vehicle>
    <vehicle id="L2-AV-264" type="L2-AV-" depart="1756.80">
        <route edges="bottom-approaching left-exit-blockage left-exit"/>
    </vehicle>
    <vehicle id="L2-AV-265" type="L2-AV-" depart="1763.00">
        <route edges="top-approaching right-exit"/>
    </vehicle>
    <vehicle id="L2-AV-266" type="L2-AV-" depart="1769.20">
        <route edges="bottom-approaching left-exit-blockage left-exit"/>
    </vehicle>
    <vehicle id="L2-AV-268" type="L2-AV-" depart="1781.60">
        <route edges="bottom-approaching right-exit"/>
    </vehicle>
    <vehicle id="L2-AV-270" type="L2-AV-" depart="1794.00">