<?xml version="1.0" ?><!-- generated on 04/09/21 11:25:24 by Eclipse SUMO duarouter Version 1.8.0
<configuration xmlns:xsi="http://www.w3.org/2001/XMLSchema-instance" xsi:noNamespaceSchemaLocation="http://sumo.dlr.de/xsd/duarouterConfiguration.xsd">

    <input>
        <net-file value="Collision/CollisionIntersection.net.xml"/>
        <route-files value="trips.trips.xml"/>
    </input>

    <output>
        <output-file value="Collision/RealTMSPenetration2/Route-Files/L2-CV-Route.rou.xml"/>
        <alternatives-output value="Collision/RealTMSPenetration2/Route-Files/L2-CV-Route.rou.alt.xml"/>
    </output>

    <time>
        <begin value="120"/>
        <end value="3600"/>
    </time>

    <report>
        <no-warnings value="true"/>
        <ignore-errors value="true"/>
        <no-step-log value="true"/>
    </report>

</configuration>
--><routes xmlns:xsi="http://www.w3.org/2001/XMLSchema-instance" xsi:noNamespaceSchemaLocation="http://sumo.dlr.de/xsd/routes_file.xsd">
    <vehicle id="L2-CV-2" type="L2-CV-" depart="130.00">
        <route edges="right-approaching left-exit-blockage left-exit"/>
    </vehicle>
    <vehicle id="L2-CV-3" type="L2-CV-" depart="135.00">
        <route edges="top-approaching left-exit-blockage left-exit"/>
    </vehicle>
    <vehicle id="L2-CV-4" type="L2-CV-" depart="140.00">
        <route edges="left-long-approaching left-short-approaching right-exit"/>
    </vehicle>
    <vehicle id="L2-CV-6" type="L2-CV-Left-" depart="150.00">
        <route edges="left-long-approaching left-short-approaching top-exit"/>
    </vehicle>
    <vehicle id="L2-CV-7" type="L2-CV-" depart="155.00">
        <route edges="right-approaching left-exit-blockage left-exit"/>
    </vehicle>
    <vehicle id="L2-CV-10" type="L2-CV-" depart="170.00">
        <route edges="left-long-approaching left-short-approaching right-exit"/>
    </vehicle>
    <vehicle id="L2-CV-11" type="L2-CV-" depart="175.00">
        <route edges="top-approaching right-exit"/>
    </vehicle>
    <vehicle id="L2-CV-12" type="L2-CV-Right-" depart="180.00">
        <route edges="left-long-approaching left-short-approaching bottom-exit"/>
    </vehicle>
    <vehicle id="L2-CV-13" type="L2-CV-" depart="185.00">
        <route edges="left-long-approaching left-short-approaching right-exit"/>
    </vehicle>
    <vehicle id="L2-CV-15" type="L2-CV-Left-" depart="195.00">
        <route edges="left-long-approaching left-short-approaching top-exit"/>
    </vehicle>
    <vehicle id="L2-CV-16" type="L2-CV-Left-" depart="200.00">
        <route edges="left-long-approaching left-short-approaching top-exit"/>
    </vehicle>
    <vehicle id="L2-CV-17" type="L2-CV-" depart="205.00">
        <route edges="right-approaching bottom-exit"/>
    </vehicle>
    <vehicle id="L2-CV-18" type="L2-CV-" depart="210.00">
        <route edges="right-approaching left-exit-blockage left-exit"/>
    </vehicle>
    <vehicle id="L2-CV-19" type="L2-CV-" depart="215.00">
        <route edges="top-approaching right-exit"/>
    </vehicle>
    <vehicle id="L2-CV-20" type="L2-CV-" depart="220.00">
        <route edges="bottom-approaching left-exit-blockage left-exit"/>
    </vehicle>
    <vehicle id="L2-CV-21" type="L2-CV-" depart="225.00">
        <route edges="top-approaching bottom-exit"/>
    </vehicle>
    <vehicle id="L2-CV-22" type="L2-CV-Left-" depart="230.00">
        <route edges="left-long-approaching left-short-approaching top-exit"/>
    </vehicle>
    <vehicle id="L2-CV-23" type="L2-CV-" depart="235.00">
        <route edges="bottom-approaching right-exit"/>
    </vehicle>
    <vehicle id="L2-CV-24" type="L2-CV-" depart="240.00">
        <route edges="bottom-approaching top-exit"/>
    </vehicle>
    <vehicle id="L2-CV-25" type="L2-CV-" depart="245.00">
        <route edges="top-approaching left-exit-blockage left-exit"/>
    </vehicle>
    <vehicle id="L2-CV-26" type="L2-CV-" depart="250.00">
        <route edges="bottom-approaching left-exit-blockage left-exit"/>
    </vehicle>
    <vehicle id="L2-CV-27" type="L2-CV-" depart="255.00">
        <route edges="right-approaching top-exit"/>
    </vehicle>
    <vehicle id="L2-CV-28" type="L2-CV-" depart="260.00">
        <route edges="bottom-approaching right-exit"/>
    </vehicle>
    <vehicle id="L2-CV-30" type="L2-CV-" depart="270.00">
        <route edges="top-approaching right-exit"/>
    </vehicle>
    <vehicle id="L2-CV-31" type="L2-CV-" depart="275.00">
        <route edges="top-approaching right-exit"/>
    </vehicle>
    <vehicle id="L2-CV-32" type="L2-CV-" depart="280.00">
        <route edges="right-approaching left-exit-blockage left-exit"/>
    </vehicle>
    <vehicle id="L2-CV-33" type="L2-CV-" depart="285.00">
        <route edges="right-approaching left-exit-blockage left-exit"/>
    </vehicle>
    <vehicle id="L2-CV-34" type="L2-CV-" depart="290.00">
        <route edges="right-approaching left-exit-blockage left-exit"/>
    </vehicle>
    <vehicle id="L2-CV-37" type="L2-CV-Right-" depart="305.00">
        <route edges="left-long-approaching left-short-approaching bottom-exit"/>
    </vehicle>
    <vehicle id="L2-CV-41" type="L2-CV-" depart="325.00">
        <route edges="right-approaching left-exit-blockage left-exit"/>
    </vehicle>
    <vehicle id="L2-CV-42" type="L2-CV-" depart="330.00">
        <route edges="right-approaching left-exit-blockage left-exit"/>
    </vehicle>
    <vehicle id="L2-CV-44" type="L2-CV-" depart="340.00">
        <route edges="top-approaching right-exit"/>
    </vehicle>
    <vehicle id="L2-CV-45" type="L2-CV-" depart="345.00">
        <route edges="top-approaching right-exit"/>
    </vehicle>
    <vehicle id="L2-CV-46" type="L2-CV-" depart="350.00">
        <route edges="left-long-approaching left-short-approaching right-exit"/>
    </vehicle>
    <vehicle id="L2-CV-48" type="L2-CV-" depart="360.00">
        <route edges="top-approaching bottom-exit"/>
    </vehicle>
    <vehicle id="L2-CV-49" type="L2-CV-" depart="365.00">
        <route edges="right-approaching left-exit-blockage left-exit"/>
    </vehicle>
    <vehicle id="L2-CV-50" type="L2-CV-" depart="370.00">
        <route edges="right-approaching top-exit"/>
    </vehicle>
    <vehicle id="L2-CV-51" type="L2-CV-" depart="375.00">
        <route edges="bottom-approaching right-exit"/>
    </vehicle>
    <vehicle id="L2-CV-53" type="L2-CV-" depart="385.00">
        <route edges="top-approaching left-exit-blockage left-exit"/>
    </vehicle>
    <vehicle id="L2-CV-54" type="L2-CV-" depart="390.00">
        <route edges="top-approaching bottom-exit"/>
    </vehicle>
    <vehicle id="L2-CV-55" type="L2-CV-" depart="395.00">
        <route edges="bottom-approaching right-exit"/>
    </vehicle>
    <vehicle id="L2-CV-56" type="L2-CV-" depart="400.00">
        <route edges="bottom-approaching right-exit"/>
    </vehicle>
    <vehicle id="L2-CV-57" type="L2-CV-" depart="405.00">
        <route edges="top-approaching right-exit"/>
    </vehicle>
    <vehicle id="L2-CV-58" type="L2-CV-" depart="410.00">
        <route edges="right-approaching bottom-exit"/>
    </vehicle>
    <vehicle id="L2-CV-60" type="L2-CV-" depart="420.00">
        <route edges="right-approaching left-exit-blockage left-exit"/>
    </vehicle>
    <vehicle id="L2-CV-61" type="L2-CV-Left-" depart="425.00">
        <route edges="left-long-approaching left-short-approaching top-exit"/>
    </vehicle>
    <vehicle id="L2-CV-63" type="L2-CV-" depart="435.00">
        <route edges="top-approaching bottom-exit"/>
    </vehicle>
    <vehicle id="L2-CV-66" type="L2-CV-" depart="450.00">
        <route edges="bottom-approaching left-exit-blockage left-exit"/>
    </vehicle>
    <vehicle id="L2-CV-67" type="L2-CV-" depart="455.00">
        <route edges="bottom-approaching left-exit-blockage left-exit"/>
    </vehicle>
    <vehicle id="L2-CV-68" type="L2-CV-" depart="460.00">
        <route edges="bottom-approaching right-exit"/>
    </vehicle>
    <vehicle id="L2-CV-69" type="L2-CV-Right-" depart="465.00">
        <route edges="left-long-approaching left-short-approaching bottom-exit"/>
    </vehicle>
    <vehicle id="L2-CV-70" type="L2-CV-Right-" depart="470.00">
        <route edges="left-long-approaching left-short-approaching bottom-exit"/>
    </vehicle>
    <vehicle id="L2-CV-71" type="L2-CV-" depart="475.00">
        <route edges="bottom-approaching top-exit"/>
    </vehicle>
    <vehicle id="L2-CV-72" type="L2-CV-" depart="480.00">
        <route edges="bottom-approaching left-exit-blockage left-exit"/>
    </vehicle>
    <vehicle id="L2-CV-73" type="L2-CV-" depart="485.00">
        <route edges="right-approaching top-exit"/>
    </vehicle>
    <vehicle id="L2-CV-74" type="L2-CV-" depart="490.00">
        <route edges="top-approaching bottom-exit"/>
    </vehicle>
    <vehicle id="L2-CV-75" type="L2-CV-" depart="495.00">
        <route edges="right-approaching top-exit"/>
    </vehicle>
    <vehicle id="L2-CV-76" type="L2-CV-" depart="500.00">
        <route edges="bottom-approaching right-exit"/>
    </vehicle>
    <vehicle id="L2-CV-77" type="L2-CV-" depart="505.00">
        <route edges="top-approaching left-exit-blockage left-exit"/>
    </vehicle>
    <vehicle id="L2-CV-79" type="L2-CV-Right-" depart="515.00">
        <route edges="left-long-approaching left-short-approaching bottom-exit"/>
    </vehicle>
    <vehicle id="L2-CV-83" type="L2-CV-" depart="535.00">
        <route edges="top-approaching left-exit-blockage left-exit"/>
    </vehicle>
    <vehicle id="L2-CV-84" type="L2-CV-" depart="540.00">
        <route edges="right-approaching bottom-exit"/>
    </vehicle>
    <vehicle id="L2-CV-85" type="L2-CV-" depart="545.00">
        <route edges="right-approaching left-exit-blockage left-exit"/>
    </vehicle>
    <vehicle id="L2-CV-86" type="L2-CV-" depart="550.00">
        <route edges="bottom-approaching left-exit-blockage left-exit"/>
    </vehicle>
    <vehicle id="L2-CV-87" type="L2-CV-" depart="555.00">
        <route edges="bottom-approaching top-exit"/>
    </vehicle>
    <vehicle id="L2-CV-89" type="L2-CV-Left-" depart="565.00">
        <route edges="left-long-approaching left-short-approaching top-exit"/>
    </vehicle>
    <vehicle id="L2-CV-91" type="L2-CV-" depart="575.00">
        <route edges="right-approaching left-exit-blockage left-exit"/>
    </vehicle>
    <vehicle id="L2-CV-92" type="L2-CV-" depart="580.00">
        <route edges="left-long-approaching left-short-approaching right-exit"/>
    </vehicle>
    <vehicle id="L2-CV-94" type="L2-CV-Right-" depart="590.00">
        <route edges="left-long-approaching left-short-approaching bottom-exit"/>
    </vehicle>
    <vehicle id="L2-CV-95" type="L2-CV-" depart="595.00">
        <route edges="right-approaching left-exit-blockage left-exit"/>
    </vehicle>
    <vehicle id="L2-CV-96" type="L2-CV-" depart="600.00">
        <route edges="top-approaching right-exit"/>
    </vehicle>
    <vehicle id="L2-CV-98" type="L2-CV-" depart="610.00">
        <route edges="right-approaching left-exit-blockage left-exit"/>
    </vehicle>
    <vehicle id="L2-CV-99" type="L2-CV-" depart="615.00">
        <route edges="right-approaching bottom-exit"/>
    </vehicle>
    <vehicle id="L2-CV-101" type="L2-CV-" depart="625.00">
        <route edges="bottom-approaching right-exit"/>
    </vehicle>
    <vehicle id="L2-CV-102" type="L2-CV-" depart="630.00">
        <route edges="left-long-approaching left-short-approaching right-exit"/>
    </vehicle>
    <vehicle id="L2-CV-105" type="L2-CV-Left-" depart="645.00">
        <route edges="left-long-approaching left-short-approaching top-exit"/>
    </vehicle>
    <vehicle id="L2-CV-107" type="L2-CV-" depart="655.00">
        <route edges="bottom-approaching top-exit"/>
    </vehicle>
    <vehicle id="L2-CV-108" type="L2-CV-" depart="660.00">
        <route edges="right-approaching bottom-exit"/>
    </vehicle>
    <vehicle id="L2-CV-109" type="L2-CV-" depart="665.00">
        <route edges="right-approaching top-exit"/>
    </vehicle>
    <vehicle id="L2-CV-110" type="L2-CV-" depart="670.00">
        <route edges="left-long-approaching left-short-approaching right-exit"/>
    </vehicle>
    <vehicle id="L2-CV-111" type="L2-CV-Right-" depart="675.00">
        <route edges="left-long-approaching left-short-approaching bottom-exit"/>
    </vehicle>
    <vehicle id="L2-CV-112" type="L2-CV-" depart="680.00">
        <route edges="right-approaching bottom-exit"/>
    </vehicle>
    <vehicle id="L2-CV-113" type="L2-CV-" depart="685.00">
        <route edges="top-approaching right-exit"/>
    </vehicle>
    <vehicle id="L2-CV-115" type="L2-CV-" depart="695.00">
        <route edges="right-approaching top-exit"/>
    </vehicle>
    <vehicle id="L2-CV-116" type="L2-CV-Left-" depart="700.00">
        <route edges="left-long-approaching left-short-approaching top-exit"/>
    </vehicle>
    <vehicle id="L2-CV-117" type="L2-CV-" depart="705.00">
        <route edges="bottom-approaching top-exit"/>
    </vehicle>
    <vehicle id="L2-CV-118" type="L2-CV-Right-" depart="710.00">
        <route edges="left-long-approaching left-short-approaching bottom-exit"/>
    </vehicle>
    <vehicle id="L2-CV-121" type="L2-CV-" depart="725.00">
        <route edges="bottom-approaching right-exit"/>
    </vehicle>
    <vehicle id="L2-CV-122" type="L2-CV-" depart="730.00">
        <route edges="right-approaching left-exit-blockage left-exit"/>
    </vehicle>
    <vehicle id="L2-CV-123" type="L2-CV-" depart="735.00">
        <route edges="top-approaching left-exit-blockage left-exit"/>
    </vehicle>
    <vehicle id="L2-CV-127" type="L2-CV-" depart="755.00">
        <route edges="top-approaching bottom-exit"/>
    </vehicle>
    <vehicle id="L2-CV-130" type="L2-CV-" depart="770.00">
        <route edges="top-approaching right-exit"/>
    </vehicle>
    <vehicle id="L2-CV-131" type="L2-CV-" depart="775.00">
        <route edges="left-long-approaching left-short-approaching right-exit"/>
    </vehicle>
    <vehicle id="L2-CV-132" type="L2-CV-" depart="780.00">
        <route edges="bottom-approaching right-exit"/>
    </vehicle>
    <vehicle id="L2-CV-134" type="L2-CV-Left-" depart="790.00">
        <route edges="left-long-approaching left-short-approaching top-exit"/>
    </vehicle>
    <vehicle id="L2-CV-135" type="L2-CV-" depart="795.00">
        <route edges="right-approaching left-exit-blockage left-exit"/>
    </vehicle>
    <vehicle id="L2-CV-136" type="L2-CV-" depart="800.00">
        <route edges="right-approaching bottom-exit"/>
    </vehicle>
    <vehicle id="L2-CV-137" type="L2-CV-" depart="805.00">
        <route edges="bottom-approaching top-exit"/>
    </vehicle>
    <vehicle id="L2-CV-139" type="L2-CV-" depart="815.00">
        <route edges="right-approaching left-exit-blockage left-exit"/>
    </vehicle>
    <vehicle id="L2-CV-140" type="L2-CV-Right-" depart="820.00">
        <route edges="left-long-approaching left-short-approaching bottom-exit"/>
    </vehicle>
    <vehicle id="L2-CV-142" type="L2-CV-" depart="830.00">
        <route edges="right-approaching bottom-exit"/>
    </vehicle>
    <vehicle id="L2-CV-144" type="L2-CV-Right-" depart="840.00">
        <route edges="left-long-approaching left-short-approaching bottom-exit"/>
    </vehicle>
    <vehicle id="L2-CV-145" type="L2-CV-" depart="845.00">
        <route edges="top-approaching left-exit-blockage left-exit"/>
    </vehicle>
    <vehicle id="L2-CV-148" type="L2-CV-" depart="860.00">
        <route edges="right-approaching left-exit-blockage left-exit"/>
    </vehicle>
    <vehicle id="L2-CV-149" type="L2-CV-" depart="865.00">
        <route edges="left-long-approaching left-short-approaching right-exit"/>
    </vehicle>
    <vehicle id="L2-CV-151" type="L2-CV-" depart="875.00">
        <route edges="right-approaching left-exit-blockage left-exit"/>
    </vehicle>
    <vehicle id="L2-CV-152" type="L2-CV-" depart="880.00">
        <route edges="top-approaching right-exit"/>
    </vehicle>
    <vehicle id="L2-CV-154" type="L2-CV-" depart="890.00">
        <route edges="right-approaching bottom-exit"/>
    </vehicle>
    <vehicle id="L2-CV-155" type="L2-CV-" depart="895.00">
        <route edges="bottom-approaching left-exit-blockage left-exit"/>
    </vehicle>
    <vehicle id="L2-CV-156" type="L2-CV-" depart="900.00">
        <route edges="right-approaching left-exit-blockage left-exit"/>
    </vehicle>
    <vehicle id="L2-CV-157" type="L2-CV-" depart="905.00">
        <route edges="left-long-approaching left-short-approaching right-exit"/>
    </vehicle>
    <vehicle id="L2-CV-158" type="L2-CV-" depart="910.00">
        <route edges="right-approaching left-exit-blockage left-exit"/>
    </vehicle>
    <vehicle id="L2-CV-159" type="L2-CV-Left-" depart="915.00">
        <route edges="left-long-approaching left-short-approaching top-exit"/>
    </vehicle>
    <vehicle id="L2-CV-160" type="L2-CV-Left-" depart="920.00">
        <route edges="left-long-approaching left-short-approaching top-exit"/>
    </vehicle>
    <vehicle id="L2-CV-162" type="L2-CV-" depart="930.00">
        <route edges="bottom-approaching top-exit"/>
    </vehicle>
    <vehicle id="L2-CV-163" type="L2-CV-" depart="935.00">
        <route edges="right-approaching top-exit"/>
    </vehicle>
    <vehicle id="L2-CV-164" type="L2-CV-" depart="940.00">
        <route edges="left-long-approaching left-short-approaching right-exit"/>
    </vehicle>
    <vehicle id="L2-CV-165" type="L2-CV-" depart="945.00">
        <route edges="bottom-approaching left-exit-blockage left-exit"/>
    </vehicle>
    <vehicle id="L2-CV-167" type="L2-CV-" depart="955.00">
        <route edges="top-approaching bottom-exit"/>
    </vehicle>
    <vehicle id="L2-CV-169" type="L2-CV-" depart="965.00">
        <route edges="left-long-approaching left-short-approaching right-exit"/>
    </vehicle>
    <vehicle id="L2-CV-170" type="L2-CV-" depart="970.00">
        <route edges="bottom-approaching top-exit"/>
    </vehicle>
    <vehicle id="L2-CV-171" type="L2-CV-" depart="975.00">
        <route edges="top-approaching bottom-exit"/>
    </vehicle>
    <vehicle id="L2-CV-172" type="L2-CV-" depart="980.00">
        <route edges="left-long-approaching left-short-approaching right-exit"/>
    </vehicle>
    <vehicle id="L2-CV-173" type="L2-CV-" depart="985.00">
        <route edges="top-approaching left-exit-blockage left-exit"/>
    </vehicle>
    <vehicle id="L2-CV-174" type="L2-CV-" depart="990.00">
        <route edges="top-approaching left-exit-blockage left-exit"/>
    </vehicle>
    <vehicle id="L2-CV-176" type="L2-CV-" depart="1000.00">
        <route edges="right-approaching bottom-exit"/>
    </vehicle>
    <vehicle id="L2-CV-177" type="L2-CV-" depart="1005.00">
        <route edges="right-approaching bottom-exit"/>
    </vehicle>
    <vehicle id="L2-CV-178" type="L2-CV-Left-" depart="1010.00">
        <route edges="left-long-approaching left-short-approaching top-exit"/>
    </vehicle>
    <vehicle id="L2-CV-181" type="L2-CV-Left-" depart="1025.00">
        <route edges="left-long-approaching left-short-approaching top-exit"/>
    </vehicle>
    <vehicle id="L2-CV-182" type="L2-CV-" depart="1030.00">
        <route edges="top-approaching right-exit"/>
    </vehicle>
    <vehicle id="L2-CV-183" type="L2-CV-" depart="1035.00">
        <route edges="right-approaching top-exit"/>
    </vehicle>
    <vehicle id="L2-CV-185" type="L2-CV-" depart="1045.00">
        <route edges="top-approaching bottom-exit"/>
    </vehicle>
    <vehicle id="L2-CV-187" type="L2-CV-" depart="1055.00">
        <route edges="bottom-approaching top-exit"/>
    </vehicle>
    <vehicle id="L2-CV-188" type="L2-CV-Right-" depart="1060.00">
        <route edges="left-long-approaching left-short-approaching bottom-exit"/>
    </vehicle>
    <vehicle id="L2-CV-189" type="L2-CV-" depart="1065.00">
        <route edges="bottom-approaching right-exit"/>
    </vehicle>
    <vehicle id="L2-CV-194" type="L2-CV-" depart="1090.00">
        <route edges="top-approaching right-exit"/>
    </vehicle>
    <vehicle id="L2-CV-195" type="L2-CV-" depart="1095.00">
        <route edges="top-approaching bottom-exit"/>
    </vehicle>
    <vehicle id="L2-CV-197" type="L2-CV-" depart="1105.00">
        <route edges="top-approaching left-exit-blockage left-exit"/>
    </vehicle>
    <vehicle id="L2-CV-198" type="L2-CV-" depart="1110.00">
        <route edges="top-approaching left-exit-blockage left-exit"/>
    </vehicle>
    <vehicle id="L2-CV-199" type="L2-CV-" depart="1115.00">
        <route edges="right-approaching top-exit"/>
    </vehicle>
    <vehicle id="L2-CV-200" type="L2-CV-" depart="1120.00">
        <route edges="top-approaching right-exit"/>
    </vehicle>
    <vehicle id="L2-CV-202" type="L2-CV-" depart="1130.00">
        <route edges="right-approaching left-exit-blockage left-exit"/>
    </vehicle>
    <vehicle id="L2-CV-203" type="L2-CV-" depart="1135.00">
        <route edges="bottom-approaching top-exit"/>
    </vehicle>
    <vehicle id="L2-CV-204" type="L2-CV-" depart="1140.00">
        <route edges="top-approaching left-exit-blockage left-exit"/>
    </vehicle>
    <vehicle id="L2-CV-205" type="L2-CV-Left-" depart="1145.00">
        <route edges="left-long-approaching left-short-approaching top-exit"/>
    </vehicle>
    <vehicle id="L2-CV-206" type="L2-CV-" depart="1150.00">
        <route edges="bottom-approaching right-exit"/>
    </vehicle>
    <vehicle id="L2-CV-207" type="L2-CV-" depart="1155.00">
        <route edges="bottom-approaching left-exit-blockage left-exit"/>
    </vehicle>
    <vehicle id="L2-CV-208" type="L2-CV-" depart="1160.00">
        <route edges="top-approaching bottom-exit"/>
    </vehicle>
    <vehicle id="L2-CV-209" type="L2-CV-" depart="1165.00">
        <route edges="bottom-approaching left-exit-blockage left-exit"/>
    </vehicle>
    <vehicle id="L2-CV-210" type="L2-CV-Left-" depart="1170.00">
        <route edges="left-long-approaching left-short-approaching top-exit"/>
    </vehicle>
    <vehicle id="L2-CV-212" type="L2-CV-" depart="1180.00">
        <route edges="bottom-approaching top-exit"/>
    </vehicle>
    <vehicle id="L2-CV-213" type="L2-CV-" depart="1185.00">
        <route edges="left-long-approaching left-short-approaching right-exit"/>
    </vehicle>
    <vehicle id="L2-CV-214" type="L2-CV-Right-" depart="1190.00">
        <route edges="left-long-approaching left-short-approaching bottom-exit"/>
    </vehicle>
    <vehicle id="L2-CV-215" type="L2-CV-Right-" depart="1195.00">
        <route edges="left-long-approaching left-short-approaching bottom-exit"/>
    </vehicle>
    <vehicle id="L2-CV-216" type="L2-CV-" depart="1200.00">
        <route edges="bottom-approaching right-exit"/>
    </vehicle>
    <vehicle id="L2-CV-217" type="L2-CV-" depart="1205.00">
        <route edges="right-approaching bottom-exit"/>
    </vehicle>
    <vehicle id="L2-CV-218" type="L2-CV-" depart="1210.00">
        <route edges="right-approaching left-exit-blockage left-exit"/>
    </vehicle>
    <vehicle id="L2-CV-219" type="L2-CV-Left-" depart="1215.00">
        <route edges="left-long-approaching left-short-approaching top-exit"/>
    </vehicle>
    <vehicle id="L2-CV-220" type="L2-CV-Left-" depart="1220.00">
        <route edges="left-long-approaching left-short-approaching top-exit"/>
    </vehicle>
    <vehicle id="L2-CV-221" type="L2-CV-" depart="1225.00">
        <route edges="right-approaching left-exit-blockage left-exit"/>
    </vehicle>
    <vehicle id="L2-CV-222" type="L2-CV-" depart="1230.00">
        <route edges="right-approaching left-exit-blockage left-exit"/>
    </vehicle>
    <vehicle id="L2-CV-223" type="L2-CV-" depart="1235.00">
        <route edges="bottom-approaching right-exit"/>
    </vehicle>
    <vehicle id="L2-CV-224" type="L2-CV-" depart="1240.00">
        <route edges="right-approaching top-exit"/>
    </vehicle>
    <vehicle id="L2-CV-225" type="L2-CV-" depart="1245.00">
        <route edges="bottom-approaching top-exit"/>
    </vehicle>
    <vehicle id="L2-CV-227" type="L2-CV-" depart="1255.00">
        <route edges="top-approaching right-exit"/>
    </vehicle>
    <vehicle id="L2-CV-228" type="L2-CV-" depart="1260.00">
        <route edges="top-approaching right-exit"/>
    </vehicle>
    <vehicle id="L2-CV-229" type="L2-CV-" depart="1265.00">
        <route edges="top-approaching bottom-exit"/>
    </vehicle>
    <vehicle id="L2-CV-230" type="L2-CV-" depart="1270.00">
        <route edges="top-approaching left-exit-blockage left-exit"/>
    </vehicle>
    <vehicle id="L2-CV-231" type="L2-CV-" depart="1275.00">
        <route edges="top-approaching left-exit-blockage left-exit"/>
    </vehicle>
    <vehicle id="L2-CV-232" type="L2-CV-" depart="1280.00">
        <route edges="top-approaching bottom-exit"/>
    </vehicle>
    <vehicle id="L2-CV-233" type="L2-CV-" depart="1285.00">
        <route edges="bottom-approaching top-exit"/>
    </vehicle>
    <vehicle id="L2-CV-234" type="L2-CV-Left-" depart="1290.00">
        <route edges="left-long-approaching left-short-approaching top-exit"/>
    </vehicle>
    <vehicle id="L2-CV-235" type="L2-CV-" depart="1295.00">
        <route edges="top-approaching right-exit"/>
    </vehicle>
    <vehicle id="L2-CV-236" type="L2-CV-" depart="1300.00">
        <route edges="right-approaching bottom-exit"/>
    </vehicle>
    <vehicle id="L2-CV-237" type="L2-CV-" depart="1305.00">
        <route edges="bottom-approaching top-exit"/>
    </vehicle>
    <vehicle id="L2-CV-239" type="L2-CV-" depart="1315.00">
        <route edges="right-approaching left-exit-blockage left-exit"/>
    </vehicle>
    <vehicle id="L2-CV-240" type="L2-CV-Right-" depart="1320.00">
        <route edges="left-long-approaching left-short-approaching bottom-exit"/>
    </vehicle>
    <vehicle id="L2-CV-241" type="L2-CV-" depart="1325.00">
        <route edges="left-long-approaching left-short-approaching right-exit"/>
    </vehicle>
    <vehicle id="L2-CV-243" type="L2-CV-Right-" depart="1335.00">
        <route edges="left-long-approaching left-short-approaching bottom-exit"/>
    </vehicle>
    <vehicle id="L2-CV-244" type="L2-CV-" depart="1340.00">
        <route edges="top-approaching right-exit"/>
    </vehicle>
    <vehicle id="L2-CV-245" type="L2-CV-" depart="1345.00">
        <route edges="bottom-approaching left-exit-blockage left-exit"/>
    </vehicle>
    <vehicle id="L2-CV-246" type="L2-CV-" depart="1350.00">
        <route edges="right-approaching bottom-exit"/>
    </vehicle>
    <vehicle id="L2-CV-248" type="L2-CV-" depart="1360.00">
        <route edges="right-approaching bottom-exit"/>
    </vehicle>
    <vehicle id="L2-CV-249" type="L2-CV-" depart="1365.00">
        <route edges="bottom-approaching left-exit-blockage left-exit"/>
    </vehicle>
    <vehicle id="L2-CV-250" type="L2-CV-" depart="1370.00">
        <route edges="bottom-approaching left-exit-blockage left-exit"/>
    </vehicle>
    <vehicle id="L2-CV-251" type="L2-CV-" depart="1375.00">
        <route edges="bottom-approaching top-exit"/>
    </vehicle>
    <vehicle id="L2-CV-252" type="L2-CV-" depart="1380.00">
        <route edges="top-approaching bottom-exit"/>
    </vehicle>
    <vehicle id="L2-CV-253" type="L2-CV-" depart="1385.00">
        <route edges="top-approaching bottom-exit"/>
    </vehicle>
    <vehicle id="L2-CV-254" type="L2-CV-" depart="1390.00">
        <route edges="bottom-approaching right-exit"/>
    </vehicle>
    <vehicle id="L2-CV-255" type="L2-CV-" depart="1395.00">
        <route edges="top-approaching bottom-exit"/>
    </vehicle>
    <vehicle id="L2-CV-256" type="L2-CV-" depart="1400.00">
        <route edges="bottom-approaching left-exit-blockage left-exit"/>
    </vehicle>
    <vehicle id="L2-CV-257" type="L2-CV-" depart="1405.00">
        <route edges="bottom-approaching right-exit"/>
    </vehicle>
    <vehicle id="L2-CV-258" type="L2-CV-" depart="1410.00">
        <route edges="top-approaching bottom-exit"/>
    </vehicle>
    <vehicle id="L2-CV-259" type="L2-CV-" depart="1415.00">
        <route edges="bottom-approaching left-exit-blockage left-exit"/>
    </vehicle>
    <vehicle id="L2-CV-260" type="L2-CV-" depart="1420.00">
        <route edges="top-approaching bottom-exit"/>
    </vehicle>
    <vehicle id="L2-CV-261" type="L2-CV-" depart="1425.00">
        <route edges="top-approaching left-exit-blockage left-exit"/>
    </vehicle>
    <vehicle id="L2-CV-264" type="L2-CV-" depart="1440.00">
        <route edges="right-approaching bottom-exit"/>
    </vehicle>
    <vehicle id="L2-CV-265" type="L2-CV-" depart="1445.00">
        <route edges="top-approaching bottom-exit"/>
    </vehicle>
    <vehicle id="L2-CV-266" type="L2-CV-" depart="1450.00">
        <route edges="right-approaching bottom-exit"/>
    </vehicle>
    <vehicle id="L2-CV-268" type="L2-CV-" depart="1460.00">
        <route edges="top-approaching left-exit-blockage left-exit"/>
    </vehicle>
    <vehicle id="L2-CV-269" type="L2-CV-" depart="1465.00">
        <route edges="bottom-approaching top-exit"/>
    </vehicle>
    <vehicle id="L2-CV-273" type="L2-CV-" depart="1485.00">
        <route edges="bottom-approaching left-exit-blockage left-exit"/>
    </vehicle>
    <vehicle id="L2-CV-275" type="L2-CV-" depart="1495.00">
        <route edges="bottom-approaching left-exit-blockage left-exit"/>
    </vehicle>
    <vehicle id="L2-CV-276" type="L2-CV-" depart="1500.00">
        <route edges="right-approaching bottom-exit"/>
    </vehicle>
    <vehicle id="L2-CV-278" type="L2-CV-" depart="1510.00">
        <route edges="top-approaching bottom-exit"/>
    </vehicle>
    <vehicle id="L2-CV-280" type="L2-CV-" depart="1520.00">
        <route edges="right-approaching left-exit-blockage left-exit"/>
    </vehicle>
    <vehicle id="L2-CV-281" type="L2-CV-" depart="1525.00">
        <route edges="bottom-approaching left-exit-blockage left-exit"/>
    </vehicle>