<?xml version="1.0" encoding="UTF-8"?>

<!-- generated on 03/27/21 18:54:24 by Eclipse SUMO duarouter Version 1.8.0
<configuration xmlns:xsi="http://www.w3.org/2001/XMLSchema-instance" xsi:noNamespaceSchemaLocation="http://sumo.dlr.de/xsd/duarouterConfiguration.xsd">

    <input>
        <net-file value="Collision/CollisionIntersection.net.xml"/>
        <route-files value="trips.trips.xml"/>
    </input>

    <output>
        <output-file value="Collision/RealTMSPenetration2/Route-Files/L4-CV-Route.rou.xml"/>
        <alternatives-output value="Collision/RealTMSPenetration2/Route-Files/L4-CV-Route.rou.alt.xml"/>
    </output>

    <time>
        <begin value="120"/>
        <end value="3600"/>
    </time>

    <report>
        <no-warnings value="true"/>
        <ignore-errors value="true"/>
        <no-step-log value="true"/>
    </report>

</configuration>
-->

<routes xmlns:xsi="http://www.w3.org/2001/XMLSchema-instance" xsi:noNamespaceSchemaLocation="http://sumo.dlr.de/xsd/routes_file.xsd">
    <vehicle id="L4-CV-2" type="L4-CV-" depart="129.30">
        <route edges="right-approaching top-exit"/>
    </vehicle>
    <vehicle id="L4-CV-3" type="L4-CV-" depart="133.95">
        <route edges="bottom-approaching left-exit-blockage left-exit"/>
    </vehicle>
    <vehicle id="L4-CV-4" type="L4-CV-" depart="138.60">
        <route edges="top-approaching right-exit"/>
    </vehicle>
    <vehicle id="L4-CV-5" type="L4-CV-" depart="143.25">
        <route edges="top-approaching bottom-exit"/>
    </vehicle>
    <vehicle id="L4-CV-6" type="L4-CV-" depart="147.90">
        <route edges="left-long-approaching left-short-approaching bottom-exit"/>
    </vehicle>
    <vehicle id="L4-CV-9" type="L4-CV-" depart="161.85">
        <route edges="left-long-approaching left-short-approaching top-exit"/>
    </vehicle>
    <vehicle id="L4-CV-10" type="L4-CV-" depart="166.50">
        <route edges="top-approaching bottom-exit"/>
    </vehicle>
    <vehicle id="L4-CV-11" type="L4-CV-" depart="171.15">
        <route edges="top-approaching bottom-exit"/>
    </vehicle>
    <vehicle id="L4-CV-12" type="L4-CV-" depart="175.80">
        <route edges="right-approaching bottom-exit"/>
    </vehicle>
    <vehicle id="L4-CV-13" type="L4-CV-" depart="180.45">
        <route edges="bottom-approaching top-exit"/>
    </vehicle>
    <vehicle id="L4-CV-16" type="L4-CV-" depart="194.40">
        <route edges="left-long-approaching left-short-approaching top-exit"/>
    </vehicle>
    <vehicle id="L4-CV-18" type="L4-CV-" depart="203.70">
        <route edges="bottom-approaching top-exit"/>
    </vehicle>
    <vehicle id="L4-CV-19" type="L4-CV-" depart="208.35">
        <route edges="right-approaching top-exit"/>
    </vehicle>
    <vehicle id="L4-CV-20" type="L4-CV-" depart="213.00">
        <route edges="top-approaching left-exit-blockage left-exit"/>
    </vehicle>
    <vehicle id="L4-CV-21" type="L4-CV-" depart="217.65">
        <route edges="left-long-approaching left-short-approaching bottom-exit"/>
    </vehicle>
    <vehicle id="L4-CV-23" type="L4-CV-" depart="226.95">
        <route edges="left-long-approaching left-short-approaching right-exit"/>
    </vehicle>
    <vehicle id="L4-CV-24" type="L4-CV-" depart="231.60">
        <route edges="bottom-approaching right-exit"/>
    </vehicle>
    <vehicle id="L4-CV-26" type="L4-CV-" depart="240.90">
        <route edges="top-approaching left-exit-blockage left-exit"/>
    </vehicle>
    <vehicle id="L4-CV-28" type="L4-CV-" depart="250.20">
        <route edges="right-approaching bottom-exit"/>
    </vehicle>
    <vehicle id="L4-CV-29" type="L4-CV-" depart="254.85">
        <route edges="top-approaching bottom-exit"/>
    </vehicle>
    <vehicle id="L4-CV-30" type="L4-CV-" depart="259.50">
        <route edges="right-approaching top-exit"/>
    </vehicle>
    <vehicle id="L4-CV-31" type="L4-CV-" depart="264.15">
        <route edges="bottom-approaching top-exit"/>
    </vehicle>
    <vehicle id="L4-CV-32" type="L4-CV-" depart="268.80">
        <route edges="left-long-approaching left-short-approaching right-exit"/>
    </vehicle>
    <vehicle id="L4-CV-34" type="L4-CV-" depart="278.10">
        <route edges="bottom-approaching top-exit"/>
    </vehicle>
    <vehicle id="L4-CV-35" type="L4-CV-" depart="282.75">
        <route edges="bottom-approaching top-exit"/>
    </vehicle>
    <vehicle id="L4-CV-38" type="L4-CV-" depart="296.70">
        <route edges="right-approaching top-exit"/>
    </vehicle>
    <vehicle id="L4-CV-39" type="L4-CV-" depart="301.35">
        <route edges="bottom-approaching right-exit"/>
    </vehicle>
    <vehicle id="L4-CV-41" type="L4-CV-" depart="310.65">
        <route edges="bottom-approaching top-exit"/>
    </vehicle>
    <vehicle id="L4-CV-42" type="L4-CV-" depart="315.30">
        <route edges="bottom-approaching left-exit-blockage left-exit"/>
    </vehicle>
    <vehicle id="L4-CV-43" type="L4-CV-" depart="319.95">
        <route edges="right-approaching top-exit"/>
    </vehicle>
    <vehicle id="L4-CV-44" type="L4-CV-" depart="324.60">
        <route edges="left-long-approaching left-short-approaching top-exit"/>
    </vehicle>
    <vehicle id="L4-CV-45" type="L4-CV-" depart="329.25">
        <route edges="right-approaching left-exit-blockage left-exit"/>
    </vehicle>
    <vehicle id="L4-CV-46" type="L4-CV-" depart="333.90">
        <route edges="left-long-approaching left-short-approaching bottom-exit"/>
    </vehicle>
    <vehicle id="L4-CV-48" type="L4-CV-" depart="343.20">
        <route edges="right-approaching top-exit"/>
    </vehicle>
    <vehicle id="L4-CV-50" type="L4-CV-" depart="352.50">
        <route edges="top-approaching right-exit"/>
    </vehicle>
    <vehicle id="L4-CV-51" type="L4-CV-" depart="357.15">
        <route edges="left-long-approaching left-short-approaching bottom-exit"/>
    </vehicle>
    <vehicle id="L4-CV-52" type="L4-CV-" depart="361.80">
        <route edges="right-approaching top-exit"/>
    </vehicle>
    <vehicle id="L4-CV-54" type="L4-CV-" depart="371.10">
        <route edges="bottom-approaching top-exit"/>
    </vehicle>
    <vehicle id="L4-CV-55" type="L4-CV-" depart="375.75">
        <route edges="bottom-approaching left-exit-blockage left-exit"/>
    </vehicle>
    <vehicle id="L4-CV-56" type="L4-CV-" depart="380.40">
        <route edges="top-approaching bottom-exit"/>
    </vehicle>
    <vehicle id="L4-CV-57" type="L4-CV-" depart="385.05">
        <route edges="right-approaching top-exit"/>
    </vehicle>
    <vehicle id="L4-CV-58" type="L4-CV-" depart="389.70">
        <route edges="right-approaching top-exit"/>
    </vehicle>
    <vehicle id="L4-CV-59" type="L4-CV-" depart="394.35">
        <route edges="bottom-approaching left-exit-blockage left-exit"/>
    </vehicle>
    <vehicle id="L4-CV-60" type="L4-CV-" depart="399.00">
        <route edges="bottom-approaching top-exit"/>
    </vehicle>
    <vehicle id="L4-CV-63" type="L4-CV-" depart="412.95">
        <route edges="top-approaching left-exit-blockage left-exit"/>
    </vehicle>
    <vehicle id="L4-CV-64" type="L4-CV-" depart="417.60">
        <route edges="left-long-approaching left-short-approaching right-exit"/>
    </vehicle>
    <vehicle id="L4-CV-66" type="L4-CV-" depart="426.90">
        <route edges="left-long-approaching left-short-approaching bottom-exit"/>
    </vehicle>
    <vehicle id="L4-CV-67" type="L4-CV-" depart="431.55">
        <route edges="left-long-approaching left-short-approaching top-exit"/>
    </vehicle>
    <vehicle id="L4-CV-68" type="L4-CV-" depart="436.20">
        <route edges="top-approaching right-exit"/>
    </vehicle>
    <vehicle id="L4-CV-70" type="L4-CV-" depart="445.50">
        <route edges="bottom-approaching left-exit-blockage left-exit"/>
    </vehicle>
    <vehicle id="L4-CV-72" type="L4-CV-" depart="454.80">
        <route edges="left-long-approaching left-short-approaching top-exit"/>
    </vehicle>
    <vehicle id="L4-CV-73" type="L4-CV-" depart="459.45">
        <route edges="top-approaching right-exit"/>
    </vehicle>
    <vehicle id="L4-CV-74" type="L4-CV-" depart="464.10">
        <route edges="right-approaching top-exit"/>
    </vehicle>
    <vehicle id="L4-CV-75" type="L4-CV-" depart="468.75">
        <route edges="left-long-approaching left-short-approaching right-exit"/>
    </vehicle>
    <vehicle id="L4-CV-77" type="L4-CV-" depart="478.05">
        <route edges="top-approaching right-exit"/>
    </vehicle>
    <vehicle id="L4-CV-78" type="L4-CV-" depart="482.70">
        <route edges="left-long-approaching left-short-approaching top-exit"/>
    </vehicle>
    <vehicle id="L4-CV-80" type="L4-CV-" depart="492.00">
        <route edges="bottom-approaching right-exit"/>
    </vehicle>
    <vehicle id="L4-CV-82" type="L4-CV-" depart="501.30">
        <route edges="left-long-approaching left-short-approaching top-exit"/>
    </vehicle>
    <vehicle id="L4-CV-83" type="L4-CV-" depart="505.95">
        <route edges="right-approaching top-exit"/>
    </vehicle>
    <vehicle id="L4-CV-84" type="L4-CV-" depart="510.60">
        <route edges="left-long-approaching left-short-approaching right-exit"/>
    </vehicle>
    <vehicle id="L4-CV-85" type="L4-CV-" depart="515.25">
        <route edges="right-approaching top-exit"/>
    </vehicle>
    <vehicle id="L4-CV-86" type="L4-CV-" depart="519.90">
        <route edges="left-long-approaching left-short-approaching top-exit"/>
    </vehicle>
    <vehicle id="L4-CV-87" type="L4-CV-" depart="524.55">
        <route edges="top-approaching right-exit"/>
    </vehicle>
    <vehicle id="L4-CV-90" type="L4-CV-" depart="538.50">
        <route edges="bottom-approaching top-exit"/>
    </vehicle>
    <vehicle id="L4-CV-91" type="L4-CV-" depart="543.15">
        <route edges="top-approaching left-exit-blockage left-exit"/>
    </vehicle>
    <vehicle id="L4-CV-93" type="L4-CV-" depart="552.45">
        <route edges="right-approaching bottom-exit"/>
    </vehicle>
    <vehicle id="L4-CV-94" type="L4-CV-" depart="557.10">
        <route edges="top-approaching right-exit"/>
    </vehicle>
    <vehicle id="L4-CV-95" type="L4-CV-" depart="561.75">
        <route edges="right-approaching left-exit-blockage left-exit"/>
    </vehicle>
    <vehicle id="L4-CV-96" type="L4-CV-" depart="566.40">
        <route edges="right-approaching top-exit"/>
    </vehicle>
    <vehicle id="L4-CV-99" type="L4-CV-" depart="580.35">
        <route edges="left-long-approaching left-short-approaching right-exit"/>
    </vehicle>
    <vehicle id="L4-CV-100" type="L4-CV-" depart="585.00">
        <route edges="bottom-approaching right-exit"/>
    </vehicle>
    <vehicle id="L4-CV-101" type="L4-CV-" depart="589.65">
        <route edges="right-approaching bottom-exit"/>
    </vehicle>
    <vehicle id="L4-CV-102" type="L4-CV-" depart="594.30">
        <route edges="left-long-approaching left-short-approaching bottom-exit"/>
    </vehicle>
    <vehicle id="L4-CV-104" type="L4-CV-" depart="603.60">
        <route edges="left-long-approaching left-short-approaching bottom-exit"/>
    </vehicle>
    <vehicle id="L4-CV-108" type="L4-CV-" depart="622.20">
        <route edges="bottom-approaching top-exit"/>
    </vehicle>
    <vehicle id="L4-CV-109" type="L4-CV-" depart="626.85">
        <route edges="bottom-approaching left-exit-blockage left-exit"/>
    </vehicle>
    <vehicle id="L4-CV-111" type="L4-CV-" depart="636.15">
        <route edges="bottom-approaching top-exit"/>
    </vehicle>
    <vehicle id="L4-CV-112" type="L4-CV-" depart="640.80">
        <route edges="left-long-approaching left-short-approaching bottom-exit"/>
    </vehicle>
    <vehicle id="L4-CV-113" type="L4-CV-" depart="645.45">
        <route edges="right-approaching bottom-exit"/>
    </vehicle>
    <vehicle id="L4-CV-114" type="L4-CV-" depart="650.10">
        <route edges="right-approaching left-exit-blockage left-exit"/>
    </vehicle>
    <vehicle id="L4-CV-115" type="L4-CV-" depart="654.75">
        <route edges="right-approaching top-exit"/>
    </vehicle>
    <vehicle id="L4-CV-116" type="L4-CV-" depart="659.40">
        <route edges="top-approaching left-exit-blockage left-exit"/>
    </vehicle>
    <vehicle id="L4-CV-117" type="L4-CV-" depart="664.05">
        <route edges="top-approaching right-exit"/>
    </vehicle>
    <vehicle id="L4-CV-118" type="L4-CV-" depart="668.70">
        <route edges="left-long-approaching left-short-approaching bottom-exit"/>
    </vehicle>
    <vehicle id="L4-CV-121" type="L4-CV-" depart="682.65">
        <route edges="right-approaching left-exit-blockage left-exit"/>
    </vehicle>
    <vehicle id="L4-CV-122" type="L4-CV-" depart="687.30">
        <route edges="top-approaching bottom-exit"/>
    </vehicle>
    <vehicle id="L4-CV-123" type="L4-CV-" depart="691.95">
        <route edges="bottom-approaching right-exit"/>
    </vehicle>
    <vehicle id="L4-CV-124" type="L4-CV-" depart="696.60">
        <route edges="right-approaching bottom-exit"/>
    </vehicle>
    <vehicle id="L4-CV-125" type="L4-CV-" depart="701.25">
        <route edges="right-approaching top-exit"/>
    </vehicle>
    <vehicle id="L4-CV-127" type="L4-CV-" depart="710.55">
        <route edges="bottom-approaching left-exit-blockage left-exit"/>
    </vehicle>
    <vehicle id="L4-CV-128" type="L4-CV-" depart="715.20">
        <route edges="top-approaching left-exit-blockage left-exit"/>
    </vehicle>
    <vehicle id="L4-CV-130" type="L4-CV-" depart="724.50">
        <route edges="right-approaching left-exit-blockage left-exit"/>
    </vehicle>
    <vehicle id="L4-CV-131" type="L4-CV-" depart="729.15">
        <route edges="top-approaching left-exit-blockage"/>
    </vehicle>
    <vehicle id="L4-CV-133" type="L4-CV-" depart="738.45">
        <route edges="top-approaching left-exit-blockage left-exit"/>
    </vehicle>
    <vehicle id="L4-CV-135" type="L4-CV-" depart="747.75">
        <route edges="bottom-approaching right-exit"/>
    </vehicle>
    <vehicle id="L4-CV-138" type="L4-CV-" depart="761.70">
        <route edges="bottom-approaching right-exit"/>
    </vehicle>
    <vehicle id="L4-CV-139" type="L4-CV-" depart="766.35">
        <route edges="left-long-approaching left-short-approaching top-exit"/>
    </vehicle>
    <vehicle id="L4-CV-140" type="L4-CV-" depart="771.00">
        <route edges="top-approaching bottom-exit"/>
    </vehicle>
    <vehicle id="L4-CV-141" type="L4-CV-" depart="775.65">
        <route edges="left-long-approaching left-short-approaching bottom-exit"/>
    </vehicle>
    <vehicle id="L4-CV-142" type="L4-CV-" depart="780.30">
        <route edges="top-approaching left-exit-blockage left-exit"/>
    </vehicle>
    <vehicle id="L4-CV-143" type="L4-CV-" depart="784.95">
        <route edges="right-approaching left-exit-blockage left-exit"/>
    </vehicle>
    <vehicle id="L4-CV-145" type="L4-CV-" depart="794.25">
        <route edges="right-approaching bottom-exit"/>
    </vehicle>
    <vehicle id="L4-CV-146" type="L4-CV-" depart="798.90">
        <route edges="top-approaching left-exit-blockage left-exit"/>
    </vehicle>
    <vehicle id="L4-CV-147" type="L4-CV-" depart="803.55">
        <route edges="right-approaching left-exit-blockage left-exit"/>
    </vehicle>
    <vehicle id="L4-CV-148" type="L4-CV-" depart="808.20">
        <route edges="left-long-approaching left-short-approaching right-exit"/>
    </vehicle>
    <vehicle id="L4-CV-151" type="L4-CV-" depart="822.15">
        <route edges="bottom-approaching left-exit-blockage left-exit"/>
    </vehicle>
    <vehicle id="L4-CV-152" type="L4-CV-" depart="826.80">
        <route edges="left-long-approaching left-short-approaching top-exit"/>
    </vehicle>
    <vehicle id="L4-CV-153" type="L4-CV-" depart="831.45">
        <route edges="top-approaching right-exit"/>
    </vehicle>
    <vehicle id="L4-CV-154" type="L4-CV-" depart="836.10">
        <route edges="bottom-approaching top-exit"/>
    </vehicle>
    <vehicle id="L4-CV-155" type="L4-CV-" depart="840.75">
        <route edges="left-long-approaching left-short-approaching right-exit"/>
    </vehicle>
    <vehicle id="L4-CV-157" type="L4-CV-" depart="850.05">
        <route edges="left-long-approaching left-short-approaching top-exit"/>
    </vehicle>
    <vehicle id="L4-CV-159" type="L4-CV-" depart="859.35">
        <route edges="top-approaching bottom-exit"/>
    </vehicle>
    <vehicle id="L4-CV-160" type="L4-CV-" depart="864.00">
        <route edges="left-long-approaching left-short-approaching top-exit"/>
    </vehicle>
    <vehicle id="L4-CV-161" type="L4-CV-" depart="868.65">
        <route edges="bottom-approaching top-exit"/>
    </vehicle>
    <vehicle id="L4-CV-162" type="L4-CV-" depart="873.30">
        <route edges="right-approaching left-exit-blockage left-exit"/>
    </vehicle>
    <vehicle id="L4-CV-163" type="L4-CV-" depart="877.95">
        <route edges="left-long-approaching left-short-approaching top-exit"/>
    </vehicle>
    <vehicle id="L4-CV-164" type="L4-CV-" depart="882.60">
        <route edges="top-approaching bottom-exit"/>
    </vehicle>
    <vehicle id="L4-CV-165" type="L4-CV-" depart="887.25">
        <route edges="left-long-approaching left-short-approaching right-exit"/>
    </vehicle>
    <vehicle id="L4-CV-167" type="L4-CV-" depart="896.55">
        <route edges="bottom-approaching right-exit"/>
    </vehicle>
    <vehicle id="L4-CV-168" type="L4-CV-" depart="901.20">
        <route edges="top-approaching bottom-exit"/>
    </vehicle>
    <vehicle id="L4-CV-169" type="L4-CV-" depart="905.85">
        <route edges="bottom-approaching top-exit"/>
    </vehicle>
    <vehicle id="L4-CV-170" type="L4-CV-" depart="910.50">
        <route edges="top-approaching right-exit"/>
    </vehicle>
    <vehicle id="L4-CV-171" type="L4-CV-" depart="915.15">
        <route edges="bottom-approaching right-exit"/>
    </vehicle>
    <vehicle id="L4-CV-173" type="L4-CV-" depart="924.45">
        <route edges="right-approaching bottom-exit"/>
    </vehicle>
    <vehicle id="L4-CV-174" type="L4-CV-" depart="929.10">
        <route edges="top-approaching bottom-exit"/>
    </vehicle>
    <vehicle id="L4-CV-175" type="L4-CV-" depart="933.75">
        <route edges="right-approaching top-exit"/>
    </vehicle>
    <vehicle id="L4-CV-176" type="L4-CV-" depart="938.40">
        <route edges="right-approaching bottom-exit"/>
    </vehicle>
    <vehicle id="L4-CV-177" type="L4-CV-" depart="943.05">
        <route edges="left-long-approaching left-short-approaching top-exit"/>
    </vehicle>
    <vehicle id="L4-CV-178" type="L4-CV-" depart="947.70">
        <route edges="bottom-approaching right-exit"/>
    </vehicle>
    <vehicle id="L4-CV-179" type="L4-CV-" depart="952.35">
        <route edges="left-long-approaching left-short-approaching bottom-exit"/>
    </vehicle>
    <vehicle id="L4-CV-180" type="L4-CV-" depart="957.00">
        <route edges="right-approaching bottom-exit"/>
    </vehicle>
    <vehicle id="L4-CV-181" type="L4-CV-" depart="961.65">
        <route edges="bottom-approaching left-exit-blockage left-exit"/>
    </vehicle>
    <vehicle id="L4-CV-184" type="L4-CV-" depart="975.60">
        <route edges="top-approaching bottom-exit"/>
    </vehicle>
    <vehicle id="L4-CV-186" type="L4-CV-" depart="984.90">
        <route edges="right-approaching left-exit-blockage left-exit"/>
    </vehicle>
    <vehicle id="L4-CV-187" type="L4-CV-" depart="989.55">
        <route edges="top-approaching left-exit-blockage left-exit"/>
    </vehicle>
    <vehicle id="L4-CV-188" type="L4-CV-" depart="994.20">
        <route edges="bottom-approaching right-exit"/>
    </vehicle>
    <vehicle id="L4-CV-189" type="L4-CV-" depart="998.85">
        <route edges="bottom-approaching right-exit"/>
    </vehicle>
    <vehicle id="L4-CV-190" type="L4-CV-" depart="1003.50">
        <route edges="left-short-approaching top-exit"/>
    </vehicle>
    <vehicle id="L4-CV-192" type="L4-CV-" depart="1012.80">
        <route edges="left-long-approaching left-short-approaching right-exit"/>
    </vehicle>
    <vehicle id="L4-CV-193" type="L4-CV-" depart="1017.45">
        <route edges="left-long-approaching left-short-approaching right-exit"/>
    </vehicle>
    <vehicle id="L4-CV-194" type="L4-CV-" depart="1022.10">
        <route edges="right-approaching bottom-exit"/>
    </vehicle>
    <vehicle id="L4-CV-195" type="L4-CV-" depart="1026.75">
        <route edges="bottom-approaching left-exit-blockage left-exit"/>
    </vehicle>
    <vehicle id="L4-CV-196" type="L4-CV-" depart="1031.40">
        <route edges="right-approaching bottom-exit"/>
    </vehicle>
    <vehicle id="L4-CV-198" type="L4-CV-" depart="1040.70">
        <route edges="bottom-approaching right-exit"/>
    </vehicle>
    <vehicle id="L4-CV-200" type="L4-CV-" depart="1050.00">
        <route edges="right-approaching bottom-exit"/>
    </vehicle>
    <vehicle id="L4-CV-201" type="L4-CV-" depart="1054.65">
        <route edges="top-approaching left-exit-blockage left-exit"/>
    </vehicle>
    <vehicle id="L4-CV-202" type="L4-CV-" depart="1059.30">
        <route edges="left-long-approaching left-short-approaching top-exit"/>
    </vehicle>
    <vehicle id="L4-CV-203" type="L4-CV-" depart="1063.95">
        <route edges="bottom-approaching right-exit"/>
    </vehicle>
    <vehicle id="L4-CV-205" type="L4-CV-" depart="1073.25">
        <route edges="top-approaching right-exit"/>
    </vehicle>
    <vehicle id="L4-CV-207" type="L4-CV-" depart="1082.55">
        <route edges="top-approaching right-exit"/>
    </vehicle>
    <vehicle id="L4-CV-208" type="L4-CV-" depart="1087.20">
        <route edges="top-approaching bottom-exit"/>
    </vehicle>
    <vehicle id="L4-CV-209" type="L4-CV-" depart="1091.85">
        <route edges="right-approaching left-exit-blockage left-exit"/>
    </vehicle>
    <vehicle id="L4-CV-210" type="L4-CV-" depart="1096.50">
        <route edges="bottom-approaching left-exit-blockage left-exit"/>
    </vehicle>
    <vehicle id="L4-CV-211" type="L4-CV-" depart="1101.15">
        <route edges="right-approaching left-exit-blockage left-exit"/>
    </vehicle>
    <vehicle id="L4-CV-212" type="L4-CV-" depart="1105.80">
        <route edges="left-long-approaching left-short-approaching bottom-exit"/>
    </vehicle>
    <vehicle id="L4-CV-213" type="L4-CV-" depart="1110.45">
        <route edges="top-approaching right-exit"/>
    </vehicle>
    <vehicle id="L4-CV-214" type="L4-CV-" depart="1115.10">
        <route edges="top-approaching left-exit-blockage left-exit"/>
    </vehicle>
    <vehicle id="L4-CV-215" type="L4-CV-" depart="1119.75">
        <route edges="top-approaching right-exit"/>
    </vehicle>
    <vehicle id="L4-CV-217" type="L4-CV-" depart="1129.05">
        <route edges="right-approaching left-exit-blockage left-exit"/>
    </vehicle>
    <vehicle id="L4-CV-220" type="L4-CV-" depart="1143.00">
        <route edges="top-approaching left-exit-blockage left-exit"/>
    </vehicle>
    <vehicle id="L4-CV-221" type="L4-CV-" depart="1147.65">
        <route edges="top-approaching bottom-exit"/>
    </vehicle>
    <vehicle id="L4-CV-222" type="L4-CV-" depart="1152.30">
        <route edges="left-long-approaching left-short-approaching top-exit"/>
    </vehicle>
    <vehicle id="L4-CV-223" type="L4-CV-" depart="1156.95">
        <route edges="right-approaching left-exit-blockage left-exit"/>
    </vehicle>
    <vehicle id="L4-CV-224" type="L4-CV-" depart="1161.60">
        <route edges="left-long-approaching left-short-approaching bottom-exit"/>
    </vehicle>
    <vehicle id="L4-CV-227" type="L4-CV-" depart="1175.55">
        <route edges="top-approaching bottom-exit"/>
    </vehicle>
    <vehicle id="L4-CV-229" type="L4-CV-" depart="1184.85">
        <route edges="bottom-approaching left-exit-blockage left-exit"/>
    </vehicle>
    <vehicle id="L4-CV-230" type="L4-CV-" depart="1189.50">
        <route edges="bottom-approaching left-exit-blockage left-exit"/>
    </vehicle>
    <vehicle id="L4-CV-231" type="L4-CV-" depart="1194.15">
        <route edges="bottom-approaching top-exit"/>
    </vehicle>
    <vehicle id="L4-CV-232" type="L4-CV-" depart="1198.80">
        <route edges="left-long-approaching left-short-approaching top-exit"/>
    </vehicle>
    <vehicle id="L4-CV-234" type="L4-CV-" depart="1208.10">
        <route edges="left-long-approaching left-short-approaching top-exit"/>
    </vehicle>
    <vehicle id="L4-CV-235" type="L4-CV-" depart="1212.75">
        <route edges="bottom-approaching right-exit"/>
    </vehicle>
    <vehicle id="L4-CV-236" type="L4-CV-" depart="1217.40">
        <route edges="left-long-approaching left-short-approaching right-exit"/>
    </vehicle>
    <vehicle id="L4-CV-237" type="L4-CV-" depart="1222.05">
        <route edges="right-approaching bottom-exit"/>
    </vehicle>
    <vehicle id="L4-CV-240" type="L4-CV-" depart="1236.00">
        <route edges="left-long-approaching left-short-approaching top-exit"/>
    </vehicle>
    <vehicle id="L4-CV-245" type="L4-CV-" depart="1259.25">
        <route edges="right-approaching top-exit"/>
    </vehicle>
    <vehicle id="L4-CV-246" type="L4-CV-" depart="1263.90">
        <route edges="right-approaching left-exit-blockage left-exit"/>
    </vehicle>
    <vehicle id="L4-CV-247" type="L4-CV-" depart="1268.55">
        <route edges="top-approaching bottom-exit"/>
    </vehicle>
    <vehicle id="L4-CV-248" type="L4-CV-" depart="1273.20">
        <route edges="bottom-approaching top-exit"/>
    </vehicle>
    <vehicle id="L4-CV-249" type="L4-CV-" depart="1277.85">
        <route edges="left-long-approaching left-short-approaching bottom-exit"/>
    </vehicle>
    <vehicle id="L4-CV-250" type="L4-CV-" depart="1282.50">
        <route edges="right-approaching top-exit"/>
    </vehicle>
    <vehicle id="L4-CV-251" type="L4-CV-" depart="1287.15">
        <route edges="right-approaching left-exit-blockage left-exit"/>
    </vehicle>
    <vehicle id="L4-CV-253" type="L4-CV-" depart="1296.45">
        <route edges="top-approaching left-exit-blockage left-exit"/>
    </vehicle>
    <vehicle id="L4-CV-254" type="L4-CV-" depart="1301.10">
        <route edges="top-approaching bottom-exit"/>
    </vehicle>
    <vehicle id="L4-CV-256" type="L4-CV-" depart="1310.40">
        <route edges="left-long-approaching left-short-approaching bottom-exit"/>
    </vehicle>
    <vehicle id="L4-CV-258" type="L4-CV-" depart="1319.70">
        <route edges="left-long-approaching left-short-approaching bottom-exit"/>
    </vehicle>
    <vehicle id="L4-CV-259" type="L4-CV-" depart="1324.35">
        <route edges="bottom-approaching top-exit"/>
    </vehicle>
    <vehicle id="L4-CV-260" type="L4-CV-" depart="1329.00">
        <route edges="bottom-approaching right-exit"/>
    </vehicle>
    <vehicle id="L4-CV-261" type="L4-CV-" depart="1333.65">
        <route edges="left-long-approaching left-short-approaching right-exit"/>
    </vehicle>
    <vehicle id="L4-CV-262" type="L4-CV-" depart="1338.30">
        <route edges="bottom-approaching left-exit-blockage left-exit"/>
    </vehicle>
    <vehicle id="L4-CV-263" type="L4-CV-" depart="1342.95">
        <route edges="bottom-approaching right-exit"/>
    </vehicle>
    <vehicle id="L4-CV-264" type="L4-CV-" depart="1347.60">
        <route edges="top-approaching right-exit"/>
    </vehicle>
    <vehicle id="L4-CV-265" type="L4-CV-" depart="1352.25">
        <route edges="top-approaching bottom-exit"/>
    </vehicle>
    <vehicle id="L4-CV-266" type="L4-CV-" depart="1356.90">
        <route edges="bottom-approaching right-exit"/>
    </vehicle>
    <vehicle id="L4-CV-267" type="L4-CV-" depart="1361.55">
        <route edges="left-long-approaching left-short-approaching right-exit"/>
    </vehicle>
    <vehicle id="L4-CV-268" type="L4-CV-" depart="1366.20">
        <route edges="left-long-approaching left-short-approaching right-exit"/>
    </vehicle>
    <vehicle id="L4-CV-269" type="L4-CV-" depart="1370.85">
        <route edges="right-approaching top-exit"/>
    </vehicle>
    <vehicle id="L4-CV-271" type="L4-CV-" depart="1380.15">
        <route edges="top-approaching bottom-exit"/>
    </vehicle>
    <vehicle id="L4-CV-272" type="L4-CV-" depart="1384.80">
        <route edges="bottom-approaching left-exit-blockage left-exit"/>
    </vehicle>
    <vehicle id="L4-CV-273" type="L4-CV-" depart="1389.45">
        <route edges="bottom-approaching top-exit"/>
    </vehicle>
    <vehicle id="L4-CV-274" type="L4-CV-" depart="1394.10">
        <route edges="top-approaching left-exit-blockage left-exit"/>
    </vehicle>
    <vehicle id="L4-CV-277" type="L4-CV-" depart="1408.05">
        <route edges="left-long-approaching left-short-approaching right-exit"/>
    </vehicle>
    <vehicle id="L4-CV-279" type="L4-CV-" depart="1417.35">
        <route edges="right-approaching bottom-exit"/>
    </vehicle>
    <vehicle id="L4-CV-280" type="L4-CV-" depart="1422.00">
        <route edges="bottom-approaching left-exit-blockage left-exit"/>
    </vehicle>
    <vehicle id="L4-CV-281" type="L4-CV-" depart="1426.65">
        <route edges="left-long-approaching left-short-approaching bottom-exit"/>
    </vehicle>
    <vehicle id="L4-CV-284" type="L4-CV-" depart="1440.60">
        <route edges="top-approaching right-exit"/>
    </vehicle>
    <vehicle id="L4-CV-285" type="L4-CV-" depart="1445.25">
        <route edges="top-approaching right-exit"/>
    </vehicle>
    <vehicle id="L4-CV-286" type="L4-CV-" depart="1449.90">
        <route edges="left-long-approaching left-short-approaching top-exit"/>
    </vehicle>
    <vehicle id="L4-CV-287" type="L4-CV-" depart="1454.55">
        <route edges="right-approaching top-exit"/>
    </vehicle>
    <vehicle id="L4-CV-289" type="L4-CV-" depart="1463.85">
        <route edges="left-long-approaching left-short-approaching top-exit"/>
    </vehicle>
    <vehicle id="L4-CV-290" type="L4-CV-" depart="1468.50">