<?xml version="1.0" encoding="UTF-8"?>

<!-- generated on 04/14/21 14:39:38 by Eclipse SUMO GUI Version 1.8.0
<configuration xmlns:xsi="http://www.w3.org/2001/XMLSchema-instance" xsi:noNamespaceSchemaLocation="http://sumo.dlr.de/xsd/sumoConfiguration.xsd">

    <input>
        <net-file value="Roadworks\RealTMSPenetration3\../RoadworksIntersection.net.xml"/>
        <route-files value="Roadworks\RealTMSPenetration3\../PresentationRoute.xml"/>
        <additional-files value="Roadworks\RealTMSPenetration3\../Additional-Files/Roadworks-Detectors.add.xml,Roadworks\RealTMSPenetration3\../Additional-Files/Roadworks-Rerouters.add.xml,Roadworks\RealTMSPenetration3\../Additional-Files/Roadworks-Traffic-lights.add.xml,Roadworks\RealTMSPenetration3\../Additional-Files/Roadworks-Traffic-Signs.add.xml,Roadworks\RealTMSPenetration3\PreparingVehicleModels/Vehicle-Models/L4-CV.add.xml,Roadworks\RealTMSPenetration3\PreparingVehicleModels/Vehicle-Models/L4-CV-Left.add.xml,Roadworks\RealTMSPenetration3\PreparingVehicleModels/Vehicle-Models/L4-CV-Right.add.xml,Roadworks\RealTMSPenetration3\PreparingVehicleModels/Vehicle-Models/L4-AV.add.xml,Roadworks\RealTMSPenetration3\PreparingVehicleModels/Vehicle-Models/L4-AV-Left.add.xml,Roadworks\RealTMSPenetration3\PreparingVehicleModels/Vehicle-Models/L4-AV-Right.add.xml,Roadworks\RealTMSPenetration3\PreparingVehicleModels/Vehicle-Models/L2-CV.add.xml,Roadworks\RealTMSPenetration3\PreparingVehicleModels/Vehicle-Models/L2-CV-Left.add.xml,Roadworks\RealTMSPenetration3\PreparingVehicleModels/Vehicle-Models/L2-CV-Right.add.xml,Roadworks\RealTMSPenetration3\PreparingVehicleModels/Vehicle-Models/L2-AV.add.xml,Roadworks\RealTMSPenetration3\PreparingVehicleModels/Vehicle-Models/L2-AV-Left.add.xml,Roadworks\RealTMSPenetration3\PreparingVehicleModels/Vehicle-Models/L2-AV-Right.add.xml,Roadworks\RealTMSPenetration3\PreparingVehicleModels/Vehicle-Models/L0-HDV.add.xml,Roadworks\RealTMSPenetration3\PreparingVehicleModels/Vehicle-Models/L0-HDV-Left.add.xml,Roadworks\RealTMSPenetration3\PreparingVehicleModels/Vehicle-Models/L0-HDV-Straight.add.xml"/>
    </input>

    <output>
        <tripinfo-output value="Roadworks\RealTMSPenetration3\Output-Files\TripInfo.xml"/>
    </output>

    <time>
        <begin value="0"/>
        <step-length value="0.1"/>
    </time>

    <processing>
        <ignore-route-errors value="true"/>
        <waiting-time-memory value="300"/>
        <default.action-step-length value="0.1"/>
    </processing>

    <emissions>
        <device.emissions.probability value="1"/>
    </emissions>

    <traci_server>
        <remote-port value="50250"/>
    </traci_server>

    <gui_only>
        <tracker-interval value="0.1"/>
    </gui_only>

</configuration>
-->

<tripinfos xmlns:xsi="http://www.w3.org/2001/XMLSchema-instance" xsi:noNamespaceSchemaLocation="http://sumo.dlr.de/xsd/tripinfo_file.xsd">
    <tripinfo id="L0-HDV-2.0" depart="15.00" departLane="bottom-approaching_2" departPos="5.10" departSpeed="0.00" departDelay="0.00" arrival="85.60" arrivalLane="left-exit_0" arrivalPos="431.00" arrivalSpeed="16.06" duration="70.60" routeLength="996.90" waitingTime="0.00" waitingCount="0" stopTime="0.00" timeLoss="6.16" rerouteNo="0" devices="tripinfo_L0-HDV-2.0 emissions_L0-HDV-2.0 ssm_L0-HDV-2.0" vType="L0-HDV-67" speedFactor="0.97" vaporized="">
        <emissions CO_abs="2339.716193" CO2_abs="201758.578867" HC_abs="15.219941" PMx_abs="3.339748" NOx_abs="79.047493" fuel_abs="86.727245" electricity_abs="0"/>
    </tripinfo>
    <tripinfo id="L4-CV-2.0" depart="18.00" departLane="bottom-approaching_0" departPos="5.10" departSpeed="0.00" departDelay="0.00" arrival="88.30" arrivalLane="left-exit_0" arrivalPos="431.00" arrivalSpeed="16.59" duration="70.30" routeLength="996.90" waitingTime="0.00" waitingCount="0" stopTime="0.00" timeLoss="7.61" rerouteNo="0" devices="tripinfo_L4-CV-2.0 emissions_L4-CV-2.0 ssm_L4-CV-2.0 toc_L4-CV-2.0 driverstateL4-CV-2.0" vType="L4-CV-56@L4-CV-2.0" speedFactor="1.00" vaporized="">
        <emissions CO_abs="1837.182793" CO2_abs="228331.056288" HC_abs="11.326228" PMx_abs="2.752279" NOx_abs="80.172087" fuel_abs="98.150353" electricity_abs="0"/>
    </tripinfo>
    <tripinfo id="L0-HDV-0.0" depart="0.00" departLane="left-long-approaching_2" departPos="5.10" departSpeed="0.00" departDelay="0.00" arrival="104.70" arrivalLane="top-exit_1" arrivalPos="486.40" arrivalSpeed="17.91" duration="104.70" routeLength="993.12" waitingTime="23.30" waitingCount="1" stopTime="0.00" timeLoss="47.00" rerouteNo="1" devices="tripinfo_L0-HDV-0.0 emissions_L0-HDV-0.0 ssm_L0-HDV-0.0" vType="L0-HDV-Left-49@L0-HDV-0.0" speedFactor="1.08" vaporized="">
        <emissions CO_abs="7625.619105" CO2_abs="307896.391756" HC_abs="41.887120" PMx_abs="5.874604" NOx_abs="127.194606" fuel_abs="132.353436" electricity_abs="0"/>
    </tripinfo>
</tripinfos>
