<?xml version="1.0" encoding="UTF-8"?>

<!-- generated on 03/29/21 20:09:16 by Eclipse SUMO GUI Version 1.8.0
<configuration xmlns:xsi="http://www.w3.org/2001/XMLSchema-instance" xsi:noNamespaceSchemaLocation="http://sumo.dlr.de/xsd/sumoConfiguration.xsd">

    <input>
        <net-file value="Roadworks\RealTMSPenetration3\../RoadworksIntersection.net.xml"/>
        <route-files value="Roadworks\RealTMSPenetration3\Route-Files/L4-CV-Route.rou.xml,Roadworks\RealTMSPenetration3\Route-Files/L4-AV-Route.rou.xml,Roadworks\RealTMSPenetration3\Route-Files/L2-CV-Route.rou.xml,Roadworks\RealTMSPenetration3\Route-Files/L2-AV-Route.rou.xml,Roadworks\RealTMSPenetration3\Route-Files/L0-HDV-Route.rou.xml"/>
        <additional-files value="Roadworks\RealTMSPenetration3\../Additional-Files/Roadworks-Detectors.add.xml,Roadworks\RealTMSPenetration3\../Additional-Files/Roadworks-Rerouters.add.xml,Roadworks\RealTMSPenetration3\../Additional-Files/Roadworks-Traffic-lights.add.xml,Roadworks\RealTMSPenetration3\../Additional-Files/Roadworks-Traffic-Signs.add.xml,Roadworks\RealTMSPenetration3\PreparingVehicleModels/Vehicle-Models/L4-CV.add.xml,Roadworks\RealTMSPenetration3\PreparingVehicleModels/Vehicle-Models/L4-CV-Left.add.xml,Roadworks\RealTMSPenetration3\PreparingVehicleModels/Vehicle-Models/L4-CV-Right.add.xml,Roadworks\RealTMSPenetration3\PreparingVehicleModels/Vehicle-Models/L4-AV.add.xml,Roadworks\RealTMSPenetration3\PreparingVehicleModels/Vehicle-Models/L4-AV-Left.add.xml,Roadworks\RealTMSPenetration3\PreparingVehicleModels/Vehicle-Models/L4-AV-Right.add.xml,Roadworks\RealTMSPenetration3\PreparingVehicleModels/Vehicle-Models/L2-CV.add.xml,Roadworks\RealTMSPenetration3\PreparingVehicleModels/Vehicle-Models/L2-CV-Left.add.xml,Roadworks\RealTMSPenetration3\PreparingVehicleModels/Vehicle-Models/L2-CV-Right.add.xml,Roadworks\RealTMSPenetration3\PreparingVehicleModels/Vehicle-Models/L2-AV.add.xml,Roadworks\RealTMSPenetration3\PreparingVehicleModels/Vehicle-Models/L2-AV-Left.add.xml,Roadworks\RealTMSPenetration3\PreparingVehicleModels/Vehicle-Models/L2-AV-Right.add.xml,Roadworks\RealTMSPenetration3\PreparingVehicleModels/Vehicle-Models/L0-HDV.add.xml,Roadworks\RealTMSPenetration3\PreparingVehicleModels/Vehicle-Models/L0-HDV-Left.add.xml,Roadworks\RealTMSPenetration3\PreparingVehicleModels/Vehicle-Models/L0-HDV-Straight.add.xml"/>
    </input>

    <output>
        <tripinfo-output value="Roadworks\RealTMSPenetration3\Output-Files\TripInfo.xml"/>
    </output>

    <time>
        <begin value="0"/>
        <step-length value="0.1"/>
    </time>

    <processing>
        <ignore-route-errors value="true"/>
        <waiting-time-memory value="300"/>
        <default.action-step-length value="0.1"/>
    </processing>

    <report>
        <no-warnings value="true"/>
    </report>

    <emissions>
        <device.emissions.probability value="1"/>
    </emissions>

    <traci_server>
        <remote-port value="51943"/>
    </traci_server>

    <gui_only>
        <quit-on-end value="true"/>
        <start value="true"/>
        <tracker-interval value="0.1"/>
    </gui_only>

</configuration>
-->

<tripinfos xmlns:xsi="http://www.w3.org/2001/XMLSchema-instance" xsi:noNamespaceSchemaLocation="http://sumo.dlr.de/xsd/tripinfo_file.xsd">
    <tripinfo id="L2-CV-0" depart="0.00" departLane="left-long-approaching_0" departPos="5.10" departSpeed="0.00" departDelay="0.00" arrival="82.80" arrivalLane="bottom-exit_0" arrivalPos="489.60" arrivalSpeed="16.59" duration="82.80" routeLength="983.54" waitingTime="10.30" waitingCount="1" stopTime="0.00" timeLoss="20.95" rerouteNo="0" devices="tripinfo_L2-CV-0 emissions_L2-CV-0 ssm_L2-CV-0 toc_L2-CV-0 driverstateL2-CV-0" vType="L2-CV-Right-28@L2-CV-0" speedFactor="1.00" vaporized="">
        <emissions CO_abs="4067.842151" CO2_abs="263838.160810" HC_abs="21.947346" PMx_abs="3.826160" NOx_abs="97.732479" fuel_abs="113.414002" electricity_abs="0"/>
    </tripinfo>
    <tripinfo id="L2-AV-4" depart="14.00" departLane="left-long-approaching_0" departPos="5.10" departSpeed="0.00" departDelay="0.00" arrival="82.80" arrivalLane="right-exit_0" arrivalPos="486.40" arrivalSpeed="16.55" duration="68.80" routeLength="995.81" waitingTime="0.00" waitingCount="0" stopTime="0.00" timeLoss="6.71" rerouteNo="0" devices="tripinfo_L2-AV-4 emissions_L2-AV-4 ssm_L2-AV-4 toc_L2-AV-4 driverstateL2-AV-4" vType="L2-AV-30@L2-AV-4" speedFactor="0.99" vaporized="">
        <emissions CO_abs="1762.389176" CO2_abs="224427.194333" HC_abs="10.501261" PMx_abs="2.660730" NOx_abs="78.148329" fuel_abs="96.472224" electricity_abs="0"/>
    </tripinfo>
    <tripinfo id="L2-AV-2" depart="7.00" departLane="right-approaching_0" departPos="5.10" departSpeed="0.00" departDelay="0.00" arrival="84.30" arrivalLane="left-exit_0" arrivalPos="431.00" arrivalSpeed="16.95" duration="77.30" routeLength="999.16" waitingTime="3.90" waitingCount="1" stopTime="0.00" timeLoss="16.34" rerouteNo="0" devices="tripinfo_L2-AV-2 emissions_L2-AV-2 ssm_L2-AV-2 toc_L2-AV-2 driverstateL2-AV-2" vType="L2-AV-30@L2-AV-2" speedFactor="1.02" vaporized="">
        <emissions CO_abs="3222.206703" CO2_abs="237851.342833" HC_abs="18.351945" PMx_abs="3.537523" NOx_abs="88.976252" fuel_abs="102.242818" electricity_abs="0"/>
    </tripinfo>
    <tripinfo id="L2-CV-1" depart="3.50" departLane="right-approaching_0" departPos="5.10" departSpeed="0.00" departDelay="0.00" arrival="85.30" arrivalLane="bottom-exit_0" arrivalPos="489.60" arrivalSpeed="16.85" duration="81.80" routeLength="992.90" waitingTime="8.00" waitingCount="1" stopTime="0.00" timeLoss="21.87" rerouteNo="0" devices="tripinfo_L2-CV-1 emissions_L2-CV-1 ssm_L2-CV-1 toc_L2-CV-1 driverstateL2-CV-1" vType="L2-CV-32@L2-CV-1" speedFactor="1.01" vaporized="">
        <emissions CO_abs="3948.324145" CO2_abs="266668.820410" HC_abs="21.432903" PMx_abs="3.897051" NOx_abs="98.789689" fuel_abs="114.630624" electricity_abs="0"/>
    </tripinfo>
    <tripinfo id="L2-CV-2" depart="7.10" departLane="right-approaching_0" departPos="5.10" departSpeed="0.00" departDelay="0.10" arrival="86.90" arrivalLane="left-exit_1" arrivalPos="431.00" arrivalSpeed="19.13" duration="79.80" routeLength="999.16" waitingTime="0.10" waitingCount="1" stopTime="0.00" timeLoss="25.76" rerouteNo="0" devices="tripinfo_L2-CV-2 emissions_L2-CV-2 ssm_L2-CV-2 toc_L2-CV-2 driverstateL2-CV-2" vType="L2-CV-79@L2-CV-2" speedFactor="1.15" vaporized="">
        <emissions CO_abs="3678.575215" CO2_abs="282630.521683" HC_abs="22.368472" PMx_abs="4.341105" NOx_abs="106.208726" fuel_abs="121.491542" electricity_abs="0"/>
    </tripinfo>
    <tripinfo id="L0-HDV-2" depart="22.00" departLane="right-approaching_0" departPos="5.10" departSpeed="0.00" departDelay="0.00" arrival="92.90" arrivalLane="top-exit_0" arrivalPos="486.40" arrivalSpeed="15.86" duration="70.90" routeLength="979.43" waitingTime="0.00" waitingCount="0" stopTime="0.00" timeLoss="8.35" rerouteNo="0" devices="tripinfo_L0-HDV-2 emissions_L0-HDV-2 ssm_L0-HDV-2" vType="L0-HDV-88" speedFactor="0.96" vaporized="">
        <emissions CO_abs="2222.562849" CO2_abs="189611.152842" HC_abs="14.332974" PMx_abs="2.995559" NOx_abs="73.289180" fuel_abs="81.505831" electricity_abs="0"/>
    </tripinfo>
    <tripinfo id="L2-AV-7" depart="25.30" departLane="right-approaching_0" departPos="5.10" departSpeed="0.00" departDelay="0.80" arrival="99.70" arrivalLane="left-exit_0" arrivalPos="431.00" arrivalSpeed="17.11" duration="74.40" routeLength="999.16" waitingTime="0.00" waitingCount="0" stopTime="0.00" timeLoss="14.15" rerouteNo="0" devices="tripinfo_L2-AV-7 emissions_L2-AV-7 ssm_L2-AV-7 toc_L2-AV-7 driverstateL2-AV-7" vType="L0-HDV-45" speedFactor="1.03" vaporized="">
        <emissions CO_abs="3099.177148" CO2_abs="252076.270828" HC_abs="19.216079" PMx_abs="4.040620" NOx_abs="97.468779" fuel_abs="108.356923" electricity_abs="0"/>
    </tripinfo>
    <tripinfo id="L2-CV-6" depart="21.00" departLane="left-long-approaching_0" departPos="5.10" departSpeed="0.00" departDelay="0.00" arrival="104.10" arrivalLane="top-exit_1" arrivalPos="486.40" arrivalSpeed="17.04" duration="83.10" routeLength="993.12" waitingTime="6.40" waitingCount="1" stopTime="0.00" timeLoss="22.35" rerouteNo="1" devices="tripinfo_L2-CV-6 emissions_L2-CV-6 ssm_L2-CV-6 toc_L2-CV-6 driverstateL2-CV-6" vType="L2-CV-Left-47@L2-CV-6" speedFactor="1.02" vaporized="">
        <emissions CO_abs="4768.027200" CO2_abs="290539.766580" HC_abs="27.106869" PMx_abs="4.898946" NOx_abs="114.085471" fuel_abs="124.891290" electricity_abs="0"/>
    </tripinfo>
    <tripinfo id="L2-AV-12" depart="42.00" departLane="left-long-approaching_0" departPos="5.10" departSpeed="0.00" departDelay="0.00" arrival="104.50" arrivalLane="bottom-exit_0" arrivalPos="489.60" arrivalSpeed="19.04" duration="62.50" routeLength="983.54" waitingTime="0.00" waitingCount="0" stopTime="0.00" timeLoss="8.61" rerouteNo="0" devices="tripinfo_L2-AV-12 emissions_L2-AV-12 ssm_L2-AV-12 toc_L2-AV-12 driverstateL2-AV-12" vType="L2-AV-Right-28@L2-AV-12" speedFactor="1.14" vaporized="">
        <emissions CO_abs="2169.319958" CO2_abs="236546.361147" HC_abs="13.582794" PMx_abs="3.592117" NOx_abs="86.873295" fuel_abs="101.681077" electricity_abs="0"/>
    </tripinfo>
    <tripinfo id="L2-CV-8" depart="31.30" departLane="right-approaching_0" departPos="5.10" departSpeed="0.00" departDelay="3.30" arrival="105.60" arrivalLane="top-exit_0" arrivalPos="486.40" arrivalSpeed="14.87" duration="74.30" routeLength="979.43" waitingTime="0.00" waitingCount="0" stopTime="0.00" timeLoss="7.30" rerouteNo="0" devices="tripinfo_L2-CV-8 emissions_L2-CV-8 ssm_L2-CV-8 toc_L2-CV-8 driverstateL2-CV-8" vType="L2-CV-23@L2-CV-8" speedFactor="0.89" vaporized="">
        <emissions CO_abs="1680.078960" CO2_abs="222697.573157" HC_abs="10.845121" PMx_abs="2.429419" NOx_abs="77.480847" fuel_abs="95.729016" electricity_abs="0"/>
    </tripinfo>
    <tripinfo id="L4-AV-4" depart="28.00" departLane="right-approaching_0" departPos="5.10" departSpeed="0.00" departDelay="0.00" arrival="112.90" arrivalLane="left-exit_0" arrivalPos="431.00" arrivalSpeed="14.43" duration="84.90" routeLength="999.16" waitingTime="0.10" waitingCount="1" stopTime="0.00" timeLoss="14.26" rerouteNo="0" devices="tripinfo_L4-AV-4 emissions_L4-AV-4 ssm_L4-AV-4 toc_L4-AV-4 driverstateL4-AV-4" vType="L0-HDV-43" speedFactor="0.88" vaporized="">
        <emissions CO_abs="3228.253012" CO2_abs="243797.716306" HC_abs="19.531600" PMx_abs="3.790895" NOx_abs="94.652661" fuel_abs="104.798569" electricity_abs="0"/>
    </tripinfo>
    <tripinfo id="L2-AV-6" depart="24.10" departLane="left-long-approaching_0" departPos="5.10" departSpeed="0.00" departDelay="3.10" arrival="116.50" arrivalLane="top-exit_0" arrivalPos="486.40" arrivalSpeed="15.21" duration="92.40" routeLength="993.12" waitingTime="2.30" waitingCount="2" stopTime="0.00" timeLoss="24.50" rerouteNo="1" devices="tripinfo_L2-AV-6 emissions_L2-AV-6 ssm_L2-AV-6 toc_L2-AV-6 driverstateL2-AV-6" vType="L0-HDV-50" speedFactor="0.91" vaporized="">
        <emissions CO_abs="4344.303923" CO2_abs="258357.256843" HC_abs="24.837008" PMx_abs="4.051147" NOx_abs="100.503200" fuel_abs="111.057847" electricity_abs="0"/>
    </tripinfo>
    <tripinfo id="L2-CV-16" depart="56.40" departLane="right-approaching_0" departPos="5.10" departSpeed="0.00" departDelay="0.40" arrival="126.30" arrivalLane="bottom-exit_1" arrivalPos="489.60" arrivalSpeed="16.14" duration="69.90" routeLength="992.90" waitingTime="0.00" waitingCount="0" stopTime="0.00" timeLoss="7.32" rerouteNo="0" devices="tripinfo_L2-CV-16 emissions_L2-CV-16 ssm_L2-CV-16 toc_L2-CV-16 driverstateL2-CV-16" vType="L2-CV-38@L2-CV-16" speedFactor="0.97" vaporized="">
        <emissions CO_abs="1615.025212" CO2_abs="201950.819027" HC_abs="9.806854" PMx_abs="2.469630" NOx_abs="71.369173" fuel_abs="86.810434" electricity_abs="0"/>
    </tripinfo>
    <tripinfo id="L4-CV-7" depart="49.00" departLane="right-approaching_0" departPos="5.10" departSpeed="0.00" departDelay="0.00" arrival="126.90" arrivalLane="bottom-exit_0" arrivalPos="489.60" arrivalSpeed="14.64" duration="77.90" routeLength="992.90" waitingTime="0.00" waitingCount="0" stopTime="0.00" timeLoss="8.94" rerouteNo="0" devices="tripinfo_L4-CV-7 emissions_L4-CV-7 ssm_L4-CV-7 toc_L4-CV-7 driverstateL4-CV-7" vType="L4-CV-22@L4-CV-7" speedFactor="0.88" vaporized="">
        <emissions CO_abs="1854.464719" CO2_abs="222799.423505" HC_abs="11.536067" PMx_abs="2.350098" NOx_abs="77.198562" fuel_abs="95.773032" electricity_abs="0"/>
    </tripinfo>
    <tripinfo id="L2-AV-17" depart="59.50" departLane="right-approaching_0" departPos="5.10" departSpeed="0.00" departDelay="0.00" arrival="127.40" arrivalLane="bottom-exit_1" arrivalPos="489.60" arrivalSpeed="18.06" duration="67.90" routeLength="992.90" waitingTime="0.00" waitingCount="0" stopTime="0.00" timeLoss="12.01" rerouteNo="0" devices="tripinfo_L2-AV-17 emissions_L2-AV-17 ssm_L2-AV-17 toc_L2-AV-17 driverstateL2-AV-17" vType="L2-AV-98@L2-AV-17" speedFactor="1.08" vaporized="">
        <emissions CO_abs="1861.086325" CO2_abs="139875.250598" HC_abs="11.528117" PMx_abs="2.397444" NOx_abs="55.710495" fuel_abs="60.126310" electricity_abs="0"/>
    </tripinfo>
    <tripinfo id="L4-CV-3" depart="21.20" departLane="top-approaching_0" departPos="5.10" departSpeed="0.00" departDelay="0.20" arrival="144.40" arrivalLane="bottom-exit_0" arrivalPos="489.60" arrivalSpeed="17.45" duration="123.20" routeLength="995.17" waitingTime="53.60" waitingCount="1" stopTime="0.00" timeLoss="66.05" rerouteNo="0" devices="tripinfo_L4-CV-3 emissions_L4-CV-3 ssm_L4-CV-3 toc_L4-CV-3 driverstateL4-CV-3" vType="L4-CV-23@L4-CV-3" speedFactor="1.05" vaporized="">
        <emissions CO_abs="11199.596575" CO2_abs="388216.575624" HC_abs="57.776298" PMx_abs="6.981908" NOx_abs="154.277476" fuel_abs="166.882099" electricity_abs="0"/>
    </tripinfo>
    <tripinfo id="L4-AV-1" depart="10.60" departLane="bottom-approaching_0" departPos="5.10" departSpeed="0.00" departDelay="3.60" arrival="144.70" arrivalLane="right-exit_0" arrivalPos="486.40" arrivalSpeed="20.01" duration="134.10" routeLength="979.93" waitingTime="62.20" waitingCount="1" stopTime="0.00" timeLoss="84.37" rerouteNo="0" devices="tripinfo_L4-AV-1 emissions_L4-AV-1 ssm_L4-AV-1 toc_L4-AV-1 driverstateL4-AV-1" vType="L4-AV-0@L4-AV-1" speedFactor="1.20" vaporized="">
        <emissions CO_abs="13895.235719" CO2_abs="444571.460710" HC_abs="72.539340" PMx_abs="8.658597" NOx_abs="181.524468" fuel_abs="191.107403" electricity_abs="0"/>
    </tripinfo>
    <tripinfo id="L2-AV-3" depart="10.50" departLane="top-approaching_0" departPos="5.10" departSpeed="0.00" departDelay="0.00" arrival="148.90" arrivalLane="left-exit_0" arrivalPos="431.00" arrivalSpeed="14.65" duration="138.40" routeLength="986.28" waitingTime="59.60" waitingCount="1" stopTime="0.00" timeLoss="68.10" rerouteNo="0" devices="tripinfo_L2-AV-3 emissions_L2-AV-3 ssm_L2-AV-3 toc_L2-AV-3 driverstateL2-AV-3" vType="L2-AV-42@L2-AV-3" speedFactor="0.88" vaporized="">
        <emissions CO_abs="11810.034727" CO2_abs="360897.127635" HC_abs="60.608465" PMx_abs="6.481488" NOx_abs="145.688368" fuel_abs="155.139411" electricity_abs="0"/>
    </tripinfo>
    <tripinfo id="L4-CV-1" depart="7.00" departLane="bottom-approaching_0" departPos="5.10" departSpeed="0.00" departDelay="0.00" arrival="149.60" arrivalLane="top-exit_1" arrivalPos="486.40" arrivalSpeed="16.26" duration="142.60" routeLength="995.17" waitingTime="59.50" waitingCount="2" stopTime="0.00" timeLoss="81.46" rerouteNo="0" devices="tripinfo_L4-CV-1 emissions_L4-CV-1 ssm_L4-CV-1 toc_L4-CV-1 driverstateL4-CV-1" vType="L4-CV-89@L4-CV-1" speedFactor="0.98" vaporized="">
        <emissions CO_abs="11226.309825" CO2_abs="383387.881463" HC_abs="57.609887" PMx_abs="6.622704" NOx_abs="151.626246" fuel_abs="164.806820" electricity_abs="0"/>
    </tripinfo>
    <tripinfo id="L2-CV-10" depart="35.00" departLane="top-approaching_0" departPos="5.10" departSpeed="0.00" departDelay="0.00" arrival="149.80" arrivalLane="bottom-exit_1" arrivalPos="489.60" arrivalSpeed="17.62" duration="114.80" routeLength="995.17" waitingTime="0.00" waitingCount="0" stopTime="0.00" timeLoss="58.22" rerouteNo="0" devices="tripinfo_L2-CV-10 emissions_L2-CV-10 ssm_L2-CV-10 toc_L2-CV-10 driverstateL2-CV-10" vType="L2-CV-30@L2-CV-10" speedFactor="1.06" vaporized="">
        <emissions CO_abs="2934.081131" CO2_abs="243248.992670" HC_abs="17.579625" PMx_abs="3.572378" NOx_abs="90.494957" fuel_abs="104.562926" electricity_abs="0"/>
    </tripinfo>
    <tripinfo id="L2-CV-11" depart="38.50" departLane="top-approaching_0" departPos="5.10" departSpeed="0.00" departDelay="0.00" arrival="149.80" arrivalLane="left-exit_1" arrivalPos="431.00" arrivalSpeed="16.83" duration="111.30" routeLength="986.28" waitingTime="28.60" waitingCount="1" stopTime="0.00" timeLoss="50.24" rerouteNo="0" devices="tripinfo_L2-CV-11 emissions_L2-CV-11 ssm_L2-CV-11 toc_L2-CV-11 driverstateL2-CV-11" vType="L2-CV-21@L2-CV-11" speedFactor="1.01" vaporized="">
        <emissions CO_abs="5937.525228" CO2_abs="304610.579639" HC_abs="32.188272" PMx_abs="4.649568" NOx_abs="115.473040" fuel_abs="130.941338" electricity_abs="0"/>
    </tripinfo>
    <tripinfo id="L2-CV-3" depart="14.50" departLane="bottom-approaching_0" departPos="5.10" departSpeed="0.00" departDelay="4.00" arrival="150.20" arrivalLane="right-exit_0" arrivalPos="486.40" arrivalSpeed="16.27" duration="135.70" routeLength="979.93" waitingTime="53.80" waitingCount="2" stopTime="0.00" timeLoss="74.62" rerouteNo="0" devices="tripinfo_L2-CV-3 emissions_L2-CV-3 ssm_L2-CV-3 toc_L2-CV-3 driverstateL2-CV-3" vType="L2-CV-98@L2-CV-3" speedFactor="0.98" vaporized="">
        <emissions CO_abs="10129.702807" CO2_abs="365128.928113" HC_abs="52.112952" PMx_abs="6.172211" NOx_abs="143.377591" fuel_abs="156.957556" electricity_abs="0"/>
    </tripinfo>
    <tripinfo id="L4-AV-0" depart="0.00" departLane="bottom-approaching_0" departPos="5.10" departSpeed="0.00" departDelay="0.00" arrival="150.50" arrivalLane="top-exit_0" arrivalPos="486.40" arrivalSpeed="13.99" duration="150.50" routeLength="995.17" waitingTime="68.80" waitingCount="1" stopTime="0.00" timeLoss="79.28" rerouteNo="0" devices="tripinfo_L4-AV-0 emissions_L4-AV-0 ssm_L4-AV-0 toc_L4-AV-0 driverstateL4-AV-0" vType="L4-AV-74@L4-AV-0" speedFactor="0.84" vaporized="">
        <emissions CO_abs="13312.100930" CO2_abs="409037.947527" HC_abs="68.256141" PMx_abs="7.002193" NOx_abs="162.791497" fuel_abs="175.834246" electricity_abs="0"/>
    </tripinfo>
    <tripinfo id="L4-AV-3" depart="24.10" departLane="top-approaching_0" departPos="5.10" departSpeed="0.00" departDelay="3.10" arrival="150.60" arrivalLane="bottom-exit_0" arrivalPos="489.60" arrivalSpeed="15.01" duration="126.50" routeLength="995.17" waitingTime="0.00" waitingCount="0" stopTime="0.00" timeLoss="60.12" rerouteNo="0" devices="tripinfo_L4-AV-3 emissions_L4-AV-3 ssm_L4-AV-3 toc_L4-AV-3 driverstateL4-AV-3" vType="L4-AV-4@L4-AV-3" speedFactor="0.90" vaporized="">
        <emissions CO_abs="2391.920274" CO2_abs="225963.340923" HC_abs="13.807561" PMx_abs="2.748864" NOx_abs="80.790313" fuel_abs="97.132894" electricity_abs="0"/>
    </tripinfo>
    <tripinfo id="L0-HDV-5" depart="55.00" departLane="top-approaching_0" departPos="5.10" departSpeed="0.00" departDelay="0.00" arrival="151.20" arrivalLane="bottom-exit_1" arrivalPos="489.60" arrivalSpeed="18.66" duration="96.20" routeLength="995.17" waitingTime="0.00" waitingCount="0" stopTime="0.00" timeLoss="42.80" rerouteNo="0" devices="tripinfo_L0-HDV-5 emissions_L0-HDV-5 ssm_L0-HDV-5" vType="L0-HDV-82" speedFactor="1.12" vaporized="">
        <emissions CO_abs="3581.895029" CO2_abs="232922.492717" HC_abs="21.327292" PMx_abs="3.927880" NOx_abs="91.126945" fuel_abs="100.123915" electricity_abs="0"/>
    </tripinfo>
    <tripinfo id="L2-CV-14" depart="49.00" departLane="bottom-approaching_0" departPos="5.10" departSpeed="0.00" departDelay="0.00" arrival="151.30" arrivalLane="right-exit_1" arrivalPos="486.40" arrivalSpeed="18.70" duration="102.30" routeLength="979.93" waitingTime="20.10" waitingCount="16" stopTime="0.00" timeLoss="49.17" rerouteNo="0" devices="tripinfo_L2-CV-14 emissions_L2-CV-14 ssm_L2-CV-14 toc_L2-CV-14 driverstateL2-CV-14" vType="L2-CV-79@L2-CV-14" speedFactor="1.12" vaporized="">
        <emissions CO_abs="6195.617214" CO2_abs="300439.111754" HC_abs="34.646982" PMx_abs="5.155415" NOx_abs="118.435855" fuel_abs="129.147745" electricity_abs="0"/>
    </tripinfo>
    <tripinfo id="L2-AV-21" depart="76.30" departLane="top-approaching_0" departPos="5.10" departSpeed="0.00" departDelay="2.80" arrival="152.90" arrivalLane="bottom-exit_1" arrivalPos="489.60" arrivalSpeed="18.04" duration="76.60" routeLength="995.17" waitingTime="0.00" waitingCount="0" stopTime="0.00" timeLoss="21.34" rerouteNo="0" devices="tripinfo_L2-AV-21 emissions_L2-AV-21 ssm_L2-AV-21 toc_L2-AV-21 driverstateL2-AV-21" vType="L2-AV-89@L2-AV-21" speedFactor="1.08" vaporized="">
        <emissions CO_abs="2565.438107" CO2_abs="238093.811801" HC_abs="15.766168" PMx_abs="3.376063" NOx_abs="87.597947" fuel_abs="102.346858" electricity_abs="0"/>
    </tripinfo>
    <tripinfo id="L2-AV-23" depart="80.50" departLane="bottom-approaching_0" departPos="5.10" departSpeed="0.00" departDelay="0.00" arrival="154.00" arrivalLane="right-exit_1" arrivalPos="486.40" arrivalSpeed="17.99" duration="73.50" routeLength="979.93" waitingTime="0.00" waitingCount="0" stopTime="0.00" timeLoss="18.13" rerouteNo="0" devices="tripinfo_L2-AV-23 emissions_L2-AV-23 ssm_L2-AV-23 toc_L2-AV-23 driverstateL2-AV-23" vType="L2-AV-37@L2-AV-23" speedFactor="1.08" vaporized="">
        <emissions CO_abs="2638.237163" CO2_abs="226865.119316" HC_abs="15.627814" PMx_abs="3.291816" NOx_abs="84.083084" fuel_abs="97.520083" electricity_abs="0"/>
    </tripinfo>
    <tripinfo id="L2-CV-25" depart="87.50" departLane="top-approaching_0" departPos="5.10" departSpeed="0.00" departDelay="0.00" arrival="154.30" arrivalLane="bottom-exit_1" arrivalPos="489.60" arrivalSpeed="19.62" duration="66.80" routeLength="995.17" waitingTime="0.00" waitingCount="0" stopTime="0.00" timeLoss="16.02" rerouteNo="0" devices="tripinfo_L2-CV-25 emissions_L2-CV-25 ssm_L2-CV-25 toc_L2-CV-25 driverstateL2-CV-25" vType="L2-CV-30@L2-CV-25" speedFactor="1.18" vaporized="">
        <emissions CO_abs="2477.763206" CO2_abs="227602.428074" HC_abs="16.099935" PMx_abs="3.643145" NOx_abs="86.641241" fuel_abs="97.836560" electricity_abs="0"/>
    </tripinfo>
    <tripinfo id="L4-AV-6" depart="42.00" departLane="bottom-approaching_0" departPos="5.10" departSpeed="0.00" departDelay="0.00" arrival="155.10" arrivalLane="top-exit_0" arrivalPos="486.40" arrivalSpeed="14.25" duration="113.10" routeLength="995.17" waitingTime="0.00" waitingCount="0" stopTime="0.00" timeLoss="43.17" rerouteNo="0" devices="tripinfo_L4-AV-6 emissions_L4-AV-6 ssm_L4-AV-6 toc_L4-AV-6 driverstateL4-AV-6" vType="L4-AV-58@L4-AV-6" speedFactor="0.85" vaporized="">
        <emissions CO_abs="2445.409139" CO2_abs="228537.361037" HC_abs="14.524479" PMx_abs="2.635679" NOx_abs="81.272226" fuel_abs="98.239647" electricity_abs="0"/>
    </tripinfo>
    <tripinfo id="L2-CV-22" depart="77.00" departLane="bottom-approaching_0" departPos="5.10" departSpeed="0.00" departDelay="0.00" arrival="156.00" arrivalLane="right-exit_0" arrivalPos="486.40" arrivalSpeed="15.47" duration="79.00" routeLength="979.93" waitingTime="0.00" waitingCount="0" stopTime="0.00" timeLoss="14.63" rerouteNo="0" devices="tripinfo_L2-CV-22 emissions_L2-CV-22 ssm_L2-CV-22 toc_L2-CV-22 driverstateL2-CV-22" vType="L2-CV-57@L2-CV-22" speedFactor="0.93" vaporized="">
        <emissions CO_abs="2534.637745" CO2_abs="242150.871377" HC_abs="14.902904" PMx_abs="2.945220" NOx_abs="86.489263" fuel_abs="104.091316" electricity_abs="0"/>
    </tripinfo>
    <tripinfo id="L2-AV-24" depart="90.10" departLane="bottom-approaching_0" departPos="5.10" departSpeed="0.00" departDelay="6.10" arrival="157.60" arrivalLane="top-exit_0" arrivalPos="486.40" arrivalSpeed="16.20" duration="67.50" routeLength="995.17" waitingTime="0.00" waitingCount="0" stopTime="0.00" timeLoss="5.96" rerouteNo="0" devices="tripinfo_L2-AV-24 emissions_L2-AV-24 ssm_L2-AV-24 toc_L2-AV-24 driverstateL2-AV-24" vType="L2-AV-57@L2-AV-24" speedFactor="0.97" vaporized="">
        <emissions CO_abs="1304.119152" CO2_abs="194243.584444" HC_abs="7.630305" PMx_abs="2.080036" NOx_abs="65.617015" fuel_abs="83.497642" electricity_abs="0"/>
    </tripinfo>
    <tripinfo id="L4-AV-12" depart="88.10" departLane="bottom-approaching_0" departPos="5.10" departSpeed="0.00" departDelay="4.10" arrival="164.10" arrivalLane="right-exit_0" arrivalPos="486.40" arrivalSpeed="17.06" duration="76.00" routeLength="979.93" waitingTime="0.00" waitingCount="0" stopTime="0.00" timeLoss="17.61" rerouteNo="0" devices="tripinfo_L4-AV-12 emissions_L4-AV-12 ssm_L4-AV-12 toc_L4-AV-12 driverstateL4-AV-12" vType="L4-AV-0@L4-AV-12" speedFactor="1.02" vaporized="">
        <emissions CO_abs="2706.236657" CO2_abs="255297.268231" HC_abs="16.902408" PMx_abs="3.525600" NOx_abs="94.313593" fuel_abs="109.741969" electricity_abs="0"/>
    </tripinfo>
    <tripinfo id="L2-CV-4" depart="17.40" departLane="bottom-approaching_0" departPos="5.10" departSpeed="0.00" departDelay="3.40" arrival="164.50" arrivalLane="left-exit_0" arrivalPos="431.00" arrivalSpeed="17.38" duration="147.10" routeLength="996.90" waitingTime="65.00" waitingCount="2" stopTime="0.00" timeLoss="87.20" rerouteNo="0" devices="tripinfo_L2-CV-4 emissions_L2-CV-4 ssm_L2-CV-4 toc_L2-CV-4 driverstateL2-CV-4" vType="L2-CV-1@L2-CV-4" speedFactor="1.04" vaporized="">
        <emissions CO_abs="14240.417085" CO2_abs="437154.461185" HC_abs="73.078073" PMx_abs="8.103338" NOx_abs="176.919977" fuel_abs="187.919929" electricity_abs="0"/>
    </tripinfo>
    <tripinfo id="L0-HDV-3" depart="33.00" departLane="bottom-approaching_0" departPos="5.10" departSpeed="0.00" departDelay="0.00" arrival="166.50" arrivalLane="left-exit_0" arrivalPos="431.00" arrivalSpeed="20.37" duration="133.50" routeLength="996.90" waitingTime="61.60" waitingCount="4" stopTime="0.00" timeLoss="82.50" rerouteNo="0" devices="tripinfo_L0-HDV-3 emissions_L0-HDV-3 ssm_L0-HDV-3" vType="L0-HDV-33" speedFactor="1.22" vaporized="">
        <emissions CO_abs="14393.647507" CO2_abs="419947.771141" HC_abs="75.471627" PMx_abs="9.183724" NOx_abs="180.706673" fuel_abs="180.521912" electricity_abs="0"/>
    </tripinfo>
    <tripinfo id="L2-AV-25" depart="90.90" departLane="top-approaching_0" departPos="5.10" departSpeed="0.00" departDelay="3.40" arrival="169.50" arrivalLane="left-exit_0" arrivalPos="431.00" arrivalSpeed="15.03" duration="78.60" routeLength="986.28" waitingTime="0.00" waitingCount="0" stopTime="0.00" timeLoss="10.01" rerouteNo="0" devices="tripinfo_L2-AV-25 emissions_L2-AV-25 ssm_L2-AV-25 toc_L2-AV-25 driverstateL2-AV-25" vType="L2-AV-14@L2-AV-25" speedFactor="0.90" vaporized="">
        <emissions CO_abs="2213.148881" CO2_abs="232117.325531" HC_abs="13.129214" PMx_abs="2.690714" NOx_abs="82.113466" fuel_abs="99.778264" electricity_abs="0"/>
    </tripinfo>
    <tripinfo id="L4-CV-5" depart="35.30" departLane="bottom-approaching_0" departPos="5.10" departSpeed="0.00" departDelay="0.30" arrival="169.80" arrivalLane="left-exit_1" arrivalPos="431.00" arrivalSpeed="18.69" duration="134.50" routeLength="996.90" waitingTime="48.80" waitingCount="4" stopTime="0.00" timeLoss="78.93" rerouteNo="0" devices="tripinfo_L4-CV-5 emissions_L4-CV-5 ssm_L4-CV-5 toc_L4-CV-5 driverstateL4-CV-5" vType="L0-HDV-12" speedFactor="1.12" vaporized="">
        <emissions CO_abs="10602.578817" CO2_abs="367354.275808" HC_abs="56.275112" PMx_abs="7.188108" NOx_abs="151.157557" fuel_abs="157.913303" electricity_abs="0"/>
    </tripinfo>
    <tripinfo id="L2-CV-28" depart="98.00" departLane="bottom-approaching_0" departPos="5.10" departSpeed="0.00" departDelay="0.00" arrival="172.80" arrivalLane="right-exit_0" arrivalPos="486.40" arrivalSpeed="15.69" duration="74.80" routeLength="979.93" waitingTime="0.00" waitingCount="0" stopTime="0.00" timeLoss="11.33" rerouteNo="0" devices="tripinfo_L2-CV-28 emissions_L2-CV-28 ssm_L2-CV-28 toc_L2-CV-28 driverstateL2-CV-28" vType="L2-CV-85@L2-CV-28" speedFactor="0.94" vaporized="">
        <emissions CO_abs="2131.344304" CO2_abs="233286.144214" HC_abs="13.078794" PMx_abs="2.775263" NOx_abs="82.596926" fuel_abs="100.280601" electricity_abs="0"/>
    </tripinfo>
    <tripinfo id="L2-CV-27" depart="94.50" departLane="bottom-approaching_0" departPos="5.10" departSpeed="0.00" departDelay="0.00" arrival="173.80" arrivalLane="left-exit_1" arrivalPos="431.00" arrivalSpeed="17.77" duration="79.30" routeLength="996.90" waitingTime="7.70" waitingCount="1" stopTime="0.00" timeLoss="21.02" rerouteNo="0" devices="tripinfo_L2-CV-27 emissions_L2-CV-27 ssm_L2-CV-27 toc_L2-CV-27 driverstateL2-CV-27" vType="L0-HDV-7" speedFactor="1.07" vaporized="">
        <emissions CO_abs="4306.948427" CO2_abs="257381.278839" HC_abs="25.086641" PMx_abs="4.515247" NOx_abs="102.041564" fuel_abs="110.637746" electricity_abs="0"/>
    </tripinfo>
    <tripinfo id="L2-AV-5" depart="17.50" departLane="top-approaching_0" departPos="5.10" departSpeed="0.00" departDelay="0.00" arrival="173.80" arrivalLane="right-exit_1" arrivalPos="486.40" arrivalSpeed="17.53" duration="156.30" routeLength="992.21" waitingTime="75.00" waitingCount="2" stopTime="0.00" timeLoss="98.81" rerouteNo="0" devices="tripinfo_L2-AV-5 emissions_L2-AV-5 ssm_L2-AV-5 toc_L2-AV-5 driverstateL2-AV-5" vType="L2-AV-59@L2-AV-5" speedFactor="1.05" vaporized="">
        <emissions CO_abs="15828.859928" CO2_abs="458153.402834" HC_abs="80.652860" PMx_abs="8.762019" NOx_abs="187.344263" fuel_abs="196.947091" electricity_abs="0"/>
    </tripinfo>