<?xml version="1.0" encoding="UTF-8"?>

<!-- generated on 03/17/21 14:39:23 by Eclipse SUMO GUI Version 1.8.0
<configuration xmlns:xsi="http://www.w3.org/2001/XMLSchema-instance" xsi:noNamespaceSchemaLocation="http://sumo.dlr.de/xsd/sumoConfiguration.xsd">

    <input>
        <net-file value="Roadworks\RealTMSPenetration3\../RoadworksIntersection.net.xml"/>
        <route-files value="Roadworks\RealTMSPenetration3\Route-Files/L4-CV-Route.rou.xml,Roadworks\RealTMSPenetration3\Route-Files/L4-AV-Route.rou.xml,Roadworks\RealTMSPenetration3\Route-Files/L2-CV-Route.rou.xml,Roadworks\RealTMSPenetration3\Route-Files/L2-AV-Route.rou.xml,Roadworks\RealTMSPenetration3\Route-Files/L0-HDV-Route.rou.xml"/>
        <additional-files value="Roadworks\RealTMSPenetration3\../Additional-Files/Roadworks-Detectors.add.xml,Roadworks\RealTMSPenetration3\../Additional-Files/Roadworks-Rerouters.add.xml,Roadworks\RealTMSPenetration3\../Additional-Files/Roadworks-Traffic-lights.add.xml,Roadworks\RealTMSPenetration3\../Additional-Files/Roadworks-Traffic-Signs.add.xml,Roadworks\RealTMSPenetration3\PreparingVehicleModels/Vehicle-Models/L4-CV.add.xml,Roadworks\RealTMSPenetration3\PreparingVehicleModels/Vehicle-Models/L4-CV-Left.add.xml,Roadworks\RealTMSPenetration3\PreparingVehicleModels/Vehicle-Models/L4-CV-Right.add.xml,Roadworks\RealTMSPenetration3\PreparingVehicleModels/Vehicle-Models/L4-AV.add.xml,Roadworks\RealTMSPenetration3\PreparingVehicleModels/Vehicle-Models/L4-AV-Left.add.xml,Roadworks\RealTMSPenetration3\PreparingVehicleModels/Vehicle-Models/L4-AV-Right.add.xml,Roadworks\RealTMSPenetration3\PreparingVehicleModels/Vehicle-Models/L2-CV.add.xml,Roadworks\RealTMSPenetration3\PreparingVehicleModels/Vehicle-Models/L2-CV-Left.add.xml,Roadworks\RealTMSPenetration3\PreparingVehicleModels/Vehicle-Models/L2-CV-Right.add.xml,Roadworks\RealTMSPenetration3\PreparingVehicleModels/Vehicle-Models/L2-AV.add.xml,Roadworks\RealTMSPenetration3\PreparingVehicleModels/Vehicle-Models/L2-AV-Left.add.xml,Roadworks\RealTMSPenetration3\PreparingVehicleModels/Vehicle-Models/L2-AV-Right.add.xml,Roadworks\RealTMSPenetration3\PreparingVehicleModels/Vehicle-Models/L0-HDV.add.xml,Roadworks\RealTMSPenetration3\PreparingVehicleModels/Vehicle-Models/L0-HDV-Left.add.xml,Roadworks\RealTMSPenetration3\PreparingVehicleModels/Vehicle-Models/L0-HDV-Straight.add.xml"/>
    </input>

    <output>
        <tripinfo-output value="Roadworks\RealTMSPenetration3\Output-Files\TripInfo.xml"/>
    </output>

    <time>
        <begin value="0"/>
        <step-length value="0.1"/>
    </time>

    <processing>
        <ignore-route-errors value="true"/>
        <waiting-time-memory value="300"/>
        <default.action-step-length value="0.1"/>
    </processing>

    <emissions>
        <device.emissions.probability value="1"/>
    </emissions>

    <traci_server>
        <remote-port value="59409"/>
    </traci_server>

    <gui_only>
        <quit-on-end value="true"/>
        <start value="true"/>
        <tracker-interval value="0.1"/>
    </gui_only>

</configuration>
-->

<tripinfos xmlns:xsi="http://www.w3.org/2001/XMLSchema-instance" xsi:noNamespaceSchemaLocation="http://sumo.dlr.de/xsd/tripinfo_file.xsd">
    <tripinfo id="L4-AV-2" depart="11.80" departLane="right-approaching_0" departPos="5.10" departSpeed="0.00" departDelay="3.40" arrival="79.40" arrivalLane="bottom-exit_1" arrivalPos="489.60" arrivalSpeed="19.65" duration="67.60" routeLength="992.90" waitingTime="1.70" waitingCount="1" stopTime="0.00" timeLoss="16.21" rerouteNo="0" devices="tripinfo_L4-AV-2 emissions_L4-AV-2 ssm_L4-AV-2 toc_L4-AV-2 driverstateL4-AV-2" vType="L4-AV-21" speedFactor="1.18" vaporized="">
        <emissions CO_abs="3154.923883" CO2_abs="264453.734554" HC_abs="18.847543" PMx_abs="4.347541" NOx_abs="99.567974" fuel_abs="113.677396" electricity_abs="0"/>
    </tripinfo>
    <tripinfo id="L2-CV-2" depart="8.40" departLane="right-approaching_0" departPos="5.10" departSpeed="0.00" departDelay="0.00" arrival="84.30" arrivalLane="top-exit_0" arrivalPos="486.40" arrivalSpeed="16.59" duration="75.90" routeLength="979.43" waitingTime="1.30" waitingCount="1" stopTime="0.00" timeLoss="15.92" rerouteNo="0" devices="tripinfo_L2-CV-2 emissions_L2-CV-2 ssm_L2-CV-2 toc_L2-CV-2 driverstateL2-CV-2" vType="L2-CV-56" speedFactor="1.00" vaporized="">
        <emissions CO_abs="2905.392336" CO2_abs="246961.197850" HC_abs="16.366580" PMx_abs="3.346547" NOx_abs="89.778838" fuel_abs="106.158832" electricity_abs="0"/>
    </tripinfo>
    <tripinfo id="L4-AV-1" depart="4.20" departLane="left-long-approaching_0" departPos="5.10" departSpeed="0.00" departDelay="0.00" arrival="86.60" arrivalLane="right-exit_1" arrivalPos="486.40" arrivalSpeed="20.01" duration="82.40" routeLength="1395.81" waitingTime="0.00" waitingCount="0" stopTime="0.00" timeLoss="11.04" rerouteNo="0" devices="tripinfo_L4-AV-1 emissions_L4-AV-1 ssm_L4-AV-1 toc_L4-AV-1 driverstateL4-AV-1" vType="L4-AV-0" speedFactor="1.20" vaporized="">
        <emissions CO_abs="2362.906573" CO2_abs="313677.226991" HC_abs="15.762126" PMx_abs="4.423021" NOx_abs="110.109048" fuel_abs="134.836709" electricity_abs="0"/>
    </tripinfo>
    <tripinfo id="L4-AV-7" depart="29.40" departLane="right-approaching_0" departPos="5.10" departSpeed="0.00" departDelay="0.00" arrival="104.90" arrivalLane="bottom-exit_0" arrivalPos="489.60" arrivalSpeed="15.01" duration="75.50" routeLength="992.90" waitingTime="0.00" waitingCount="0" stopTime="0.00" timeLoss="8.30" rerouteNo="0" devices="tripinfo_L4-AV-7 emissions_L4-AV-7 ssm_L4-AV-7 toc_L4-AV-7 driverstateL4-AV-7" vType="L4-AV-57" speedFactor="0.90" vaporized="">
        <emissions CO_abs="1934.619150" CO2_abs="227492.320310" HC_abs="11.605672" PMx_abs="2.577020" NOx_abs="79.724999" fuel_abs="97.790045" electricity_abs="0"/>
    </tripinfo>
    <tripinfo id="L4-AV-8" depart="33.60" departLane="right-approaching_0" departPos="5.10" departSpeed="0.00" departDelay="0.00" arrival="105.80" arrivalLane="top-exit_0" arrivalPos="486.40" arrivalSpeed="15.96" duration="72.20" routeLength="979.43" waitingTime="0.00" waitingCount="0" stopTime="0.00" timeLoss="9.83" rerouteNo="0" devices="tripinfo_L4-AV-8 emissions_L4-AV-8 ssm_L4-AV-8 toc_L4-AV-8 driverstateL4-AV-8" vType="L4-AV-10" speedFactor="0.96" vaporized="">
        <emissions CO_abs="2024.068192" CO2_abs="225987.315454" HC_abs="12.018422" PMx_abs="2.737643" NOx_abs="79.949138" fuel_abs="97.142958" electricity_abs="0"/>
    </tripinfo>
    <tripinfo id="L2-AV-2" depart="16.80" departLane="right-approaching_0" departPos="5.10" departSpeed="0.00" departDelay="0.00" arrival="108.70" arrivalLane="left-exit_0" arrivalPos="831.00" arrivalSpeed="16.85" duration="91.90" routeLength="1399.16" waitingTime="0.00" waitingCount="0" stopTime="0.00" timeLoss="6.83" rerouteNo="0" devices="tripinfo_L2-AV-2 emissions_L2-AV-2 ssm_L2-AV-2 toc_L2-AV-2 driverstateL2-AV-2" vType="L2-AV-32@L2-AV-2" speedFactor="1.01" vaporized="">
        <emissions CO_abs="1994.330599" CO2_abs="298209.480439" HC_abs="11.878310" PMx_abs="3.483550" NOx_abs="102.463812" fuel_abs="128.188051" electricity_abs="0"/>
    </tripinfo>
    <tripinfo id="L4-AV-10" depart="42.00" departLane="right-approaching_0" departPos="5.10" departSpeed="0.00" departDelay="0.00" arrival="110.80" arrivalLane="bottom-exit_0" arrivalPos="489.60" arrivalSpeed="17.30" duration="68.80" routeLength="992.90" waitingTime="0.00" waitingCount="0" stopTime="0.00" timeLoss="10.43" rerouteNo="0" devices="tripinfo_L4-AV-10 emissions_L4-AV-10 ssm_L4-AV-10 toc_L4-AV-10 driverstateL4-AV-10" vType="L4-AV-28" speedFactor="1.04" vaporized="">
        <emissions CO_abs="2052.851683" CO2_abs="231590.081020" HC_abs="12.255132" PMx_abs="3.001279" NOx_abs="82.349777" fuel_abs="99.551129" electricity_abs="0"/>
    </tripinfo>
    <tripinfo id="L2-CV-12" depart="50.40" departLane="right-approaching_0" departPos="5.10" departSpeed="0.00" departDelay="0.00" arrival="119.50" arrivalLane="bottom-exit_0" arrivalPos="489.60" arrivalSpeed="16.74" duration="69.10" routeLength="992.90" waitingTime="0.00" waitingCount="0" stopTime="0.00" timeLoss="8.84" rerouteNo="0" devices="tripinfo_L2-CV-12 emissions_L2-CV-12 ssm_L2-CV-12 toc_L2-CV-12 driverstateL2-CV-12" vType="L2-CV-97" speedFactor="1.00" vaporized="">
        <emissions CO_abs="1881.920372" CO2_abs="229724.332586" HC_abs="11.530174" PMx_abs="2.827020" NOx_abs="80.803565" fuel_abs="98.749225" electricity_abs="0"/>
    </tripinfo>
    <tripinfo id="L2-CV-5" depart="24.60" departLane="top-approaching_0" departPos="5.10" departSpeed="0.00" departDelay="3.60" arrival="143.40" arrivalLane="bottom-exit_0" arrivalPos="489.60" arrivalSpeed="17.75" duration="118.80" routeLength="995.17" waitingTime="50.00" waitingCount="1" stopTime="0.00" timeLoss="62.68" rerouteNo="0" devices="tripinfo_L2-CV-5 emissions_L2-CV-5 ssm_L2-CV-5 toc_L2-CV-5 driverstateL2-CV-5" vType="L2-CV-73" speedFactor="1.06" vaporized="">
        <emissions CO_abs="10722.165421" CO2_abs="375882.579603" HC_abs="54.935358" PMx_abs="6.829043" NOx_abs="149.451629" fuel_abs="161.579841" electricity_abs="0"/>
    </tripinfo>
    <tripinfo id="L0-HDV-1" depart="8.40" departLane="bottom-approaching_0" departPos="5.10" departSpeed="0.00" departDelay="0.00" arrival="145.10" arrivalLane="top-exit_1" arrivalPos="486.40" arrivalSpeed="19.96" duration="136.70" routeLength="995.17" waitingTime="65.50" waitingCount="1" stopTime="0.00" timeLoss="86.75" rerouteNo="0" devices="tripinfo_L0-HDV-1 emissions_L0-HDV-1 ssm_L0-HDV-1" vType="L0-HDV-30" speedFactor="1.20" vaporized="">
        <emissions CO_abs="14710.299267" CO2_abs="435961.232251" HC_abs="77.224366" PMx_abs="9.094316" NOx_abs="184.458998" fuel_abs="187.406084" electricity_abs="0"/>
    </tripinfo>
    <tripinfo id="L4-AV-0" depart="0.00" departLane="bottom-approaching_0" departPos="5.10" departSpeed="0.00" departDelay="0.00" arrival="149.60" arrivalLane="right-exit_0" arrivalPos="486.40" arrivalSpeed="13.99" duration="149.60" routeLength="979.93" waitingTime="68.80" waitingCount="1" stopTime="0.00" timeLoss="78.47" rerouteNo="0" devices="tripinfo_L4-AV-0 emissions_L4-AV-0 ssm_L4-AV-0 toc_L4-AV-0 driverstateL4-AV-0" vType="L4-AV-74" speedFactor="0.84" vaporized="">
        <emissions CO_abs="13331.969756" CO2_abs="406870.563063" HC_abs="68.334151" PMx_abs="6.996166" NOx_abs="162.192720" fuel_abs="174.902575" electricity_abs="0"/>
    </tripinfo>
    <tripinfo id="L0-HDV-3" depart="32.20" departLane="top-approaching_0" departPos="5.10" departSpeed="0.00" departDelay="7.00" arrival="150.50" arrivalLane="bottom-exit_0" arrivalPos="489.60" arrivalSpeed="15.82" duration="118.30" routeLength="995.17" waitingTime="38.90" waitingCount="1" stopTime="0.00" timeLoss="55.27" rerouteNo="0" devices="tripinfo_L0-HDV-3 emissions_L0-HDV-3 ssm_L0-HDV-3" vType="L0-HDV-98" speedFactor="0.95" vaporized="">
        <emissions CO_abs="9231.552052" CO2_abs="300853.199123" HC_abs="48.642943" PMx_abs="5.625825" NOx_abs="123.363432" fuel_abs="129.327481" electricity_abs="0"/>
    </tripinfo>
    <tripinfo id="L4-CV-1" depart="12.00" departLane="bottom-approaching_0" departPos="5.10" departSpeed="0.00" departDelay="0.00" arrival="150.70" arrivalLane="top-exit_0" arrivalPos="486.40" arrivalSpeed="16.26" duration="138.70" routeLength="995.17" waitingTime="54.30" waitingCount="2" stopTime="0.00" timeLoss="77.56" rerouteNo="0" devices="tripinfo_L4-CV-1 emissions_L4-CV-1 ssm_L4-CV-1 toc_L4-CV-1 driverstateL4-CV-1" vType="L4-CV-89" speedFactor="0.98" vaporized="">
        <emissions CO_abs="10448.221970" CO2_abs="371864.879332" HC_abs="53.923527" PMx_abs="6.311870" NOx_abs="146.277943" fuel_abs="159.853244" electricity_abs="0"/>
    </tripinfo>
    <tripinfo id="L4-CV-3" depart="36.00" departLane="top-approaching_0" departPos="5.10" departSpeed="0.00" departDelay="0.00" arrival="152.20" arrivalLane="bottom-exit_1" arrivalPos="489.60" arrivalSpeed="18.18" duration="116.20" routeLength="995.17" waitingTime="30.30" waitingCount="3" stopTime="0.00" timeLoss="61.58" rerouteNo="0" devices="tripinfo_L4-CV-3 emissions_L4-CV-3 ssm_L4-CV-3 toc_L4-CV-3 driverstateL4-CV-3" vType="L4-CV-82" speedFactor="1.09" vaporized="">
        <emissions CO_abs="7075.173824" CO2_abs="333097.507120" HC_abs="38.676991" PMx_abs="5.424335" NOx_abs="128.679259" fuel_abs="143.186972" electricity_abs="0"/>
    </tripinfo>
    <tripinfo id="L4-AV-3" depart="15.60" departLane="bottom-approaching_0" departPos="5.10" departSpeed="0.00" departDelay="3.00" arrival="152.80" arrivalLane="top-exit_0" arrivalPos="486.40" arrivalSpeed="16.76" duration="137.20" routeLength="995.17" waitingTime="0.10" waitingCount="1" stopTime="0.00" timeLoss="77.72" rerouteNo="0" devices="tripinfo_L4-AV-3 emissions_L4-AV-3 ssm_L4-AV-3 toc_L4-AV-3 driverstateL4-AV-3" vType="L4-AV-38" speedFactor="1.01" vaporized="">
        <emissions CO_abs="3609.573332" CO2_abs="255404.446268" HC_abs="20.349151" PMx_abs="3.572021" NOx_abs="94.533863" fuel_abs="109.788627" electricity_abs="0"/>
    </tripinfo>
    <tripinfo id="L2-CV-10" depart="42.00" departLane="top-approaching_0" departPos="5.10" departSpeed="0.00" departDelay="0.00" arrival="153.50" arrivalLane="bottom-exit_0" arrivalPos="489.60" arrivalSpeed="18.28" duration="111.50" routeLength="995.17" waitingTime="28.10" waitingCount="30" stopTime="0.00" timeLoss="57.18" rerouteNo="0" devices="tripinfo_L2-CV-10 emissions_L2-CV-10 ssm_L2-CV-10 toc_L2-CV-10 driverstateL2-CV-10" vType="L2-CV-24" speedFactor="1.10" vaporized="">
        <emissions CO_abs="6230.308015" CO2_abs="318057.972560" HC_abs="34.361871" PMx_abs="5.174531" NOx_abs="122.437322" fuel_abs="136.721565" electricity_abs="0"/>
    </tripinfo>
    <tripinfo id="L2-CV-13" depart="54.60" departLane="bottom-approaching_0" departPos="5.10" departSpeed="0.00" departDelay="0.00" arrival="153.70" arrivalLane="top-exit_1" arrivalPos="486.40" arrivalSpeed="17.85" duration="99.10" routeLength="995.17" waitingTime="0.00" waitingCount="0" stopTime="0.00" timeLoss="43.22" rerouteNo="0" devices="tripinfo_L2-CV-13 emissions_L2-CV-13 ssm_L2-CV-13 toc_L2-CV-13 driverstateL2-CV-13" vType="L2-CV-95" speedFactor="1.07" vaporized="">
        <emissions CO_abs="3363.240334" CO2_abs="257315.248292" HC_abs="19.854304" PMx_abs="3.823157" NOx_abs="96.042103" fuel_abs="110.609607" electricity_abs="0"/>
    </tripinfo>
    <tripinfo id="L2-CV-11" depart="50.20" departLane="top-approaching_0" departPos="5.10" departSpeed="0.00" departDelay="4.00" arrival="154.60" arrivalLane="bottom-exit_1" arrivalPos="489.60" arrivalSpeed="19.62" duration="104.40" routeLength="995.17" waitingTime="23.50" waitingCount="29" stopTime="0.00" timeLoss="53.69" rerouteNo="0" devices="tripinfo_L2-CV-11 emissions_L2-CV-11 ssm_L2-CV-11 toc_L2-CV-11 driverstateL2-CV-11" vType="L2-CV-30" speedFactor="1.18" vaporized="">
        <emissions CO_abs="6344.779263" CO2_abs="301824.503661" HC_abs="35.413668" PMx_abs="5.350641" NOx_abs="119.625001" fuel_abs="129.743168" electricity_abs="0"/>
    </tripinfo>
    <tripinfo id="L2-CV-18" depart="75.60" departLane="bottom-approaching_0" departPos="5.10" departSpeed="0.00" departDelay="0.00" arrival="155.40" arrivalLane="top-exit_0" arrivalPos="486.40" arrivalSpeed="17.19" duration="79.80" routeLength="995.17" waitingTime="0.20" waitingCount="2" stopTime="0.00" timeLoss="21.79" rerouteNo="0" devices="tripinfo_L2-CV-18 emissions_L2-CV-18 ssm_L2-CV-18 toc_L2-CV-18 driverstateL2-CV-18" vType="L2-CV-70" speedFactor="1.03" vaporized="">
        <emissions CO_abs="3423.682961" CO2_abs="263189.276144" HC_abs="19.773621" PMx_abs="3.755970" NOx_abs="97.192722" fuel_abs="113.134761" electricity_abs="0"/>
    </tripinfo>
    <tripinfo id="L4-AV-18" depart="75.60" departLane="top-approaching_0" departPos="5.10" departSpeed="0.00" departDelay="0.00" arrival="156.40" arrivalLane="bottom-exit_1" arrivalPos="489.60" arrivalSpeed="19.05" duration="80.80" routeLength="995.17" waitingTime="0.10" waitingCount="1" stopTime="0.00" timeLoss="28.45" rerouteNo="0" devices="tripinfo_L4-AV-18 emissions_L4-AV-18 ssm_L4-AV-18 toc_L4-AV-18 driverstateL4-AV-18" vType="L4-AV-34" speedFactor="1.14" vaporized="">
        <emissions CO_abs="3203.761295" CO2_abs="265940.636298" HC_abs="19.293092" PMx_abs="3.815805" NOx_abs="98.126193" fuel_abs="114.317325" electricity_abs="0"/>
    </tripinfo>
    <tripinfo id="L2-CV-4" depart="16.80" departLane="top-approaching_0" departPos="5.10" departSpeed="0.00" departDelay="0.00" arrival="158.60" arrivalLane="right-exit_0" arrivalPos="486.40" arrivalSpeed="16.90" duration="141.80" routeLength="992.21" waitingTime="68.90" waitingCount="2" stopTime="0.00" timeLoss="82.17" rerouteNo="0" devices="tripinfo_L2-CV-4 emissions_L2-CV-4 ssm_L2-CV-4 toc_L2-CV-4 driverstateL2-CV-4" vType="L2-CV-24" speedFactor="1.01" vaporized="">
        <emissions CO_abs="14060.854764" CO2_abs="430993.781475" HC_abs="71.239151" PMx_abs="8.010763" NOx_abs="173.899922" fuel_abs="185.271506" electricity_abs="0"/>
    </tripinfo>
    <tripinfo id="L2-AV-5" depart="44.80" departLane="top-approaching_0" departPos="5.10" departSpeed="0.00" departDelay="2.80" arrival="160.20" arrivalLane="right-exit_0" arrivalPos="486.40" arrivalSpeed="17.16" duration="115.40" routeLength="992.21" waitingTime="0.00" waitingCount="0" stopTime="0.00" timeLoss="56.66" rerouteNo="0" devices="tripinfo_L2-AV-5 emissions_L2-AV-5 ssm_L2-AV-5 toc_L2-AV-5 driverstateL2-AV-5" vType="L2-AV-19" speedFactor="1.03" vaporized="">
        <emissions CO_abs="2862.598928" CO2_abs="244631.186905" HC_abs="16.487929" PMx_abs="3.474170" NOx_abs="89.820892" fuel_abs="105.157074" electricity_abs="0"/>
    </tripinfo>
    <tripinfo id="L4-AV-11" depart="46.20" departLane="top-approaching_0" departPos="5.10" departSpeed="0.00" departDelay="0.00" arrival="164.60" arrivalLane="right-exit_0" arrivalPos="486.40" arrivalSpeed="18.14" duration="118.40" routeLength="992.21" waitingTime="0.10" waitingCount="1" stopTime="0.00" timeLoss="62.78" rerouteNo="0" devices="tripinfo_L4-AV-11 emissions_L4-AV-11 ssm_L4-AV-11 toc_L4-AV-11 driverstateL4-AV-11" vType="L4-AV-14" speedFactor="1.09" vaporized="">
        <emissions CO_abs="4013.563938" CO2_abs="261190.781631" HC_abs="22.781667" PMx_abs="4.050409" NOx_abs="99.231114" fuel_abs="112.275711" electricity_abs="0"/>
    </tripinfo>
    <tripinfo id="L4-AV-6" depart="25.20" departLane="top-approaching_0" departPos="5.10" departSpeed="0.00" departDelay="0.00" arrival="166.70" arrivalLane="left-exit_0" arrivalPos="831.00" arrivalSpeed="19.66" duration="141.50" routeLength="1386.28" waitingTime="46.20" waitingCount="1" stopTime="0.00" timeLoss="68.71" rerouteNo="0" devices="tripinfo_L4-AV-6 emissions_L4-AV-6 ssm_L4-AV-6 toc_L4-AV-6 driverstateL4-AV-6" vType="L4-AV-42@L4-AV-6" speedFactor="1.18" vaporized="">
        <emissions CO_abs="3291.849539" CO2_abs="294551.688356" HC_abs="20.020809" PMx_abs="4.485342" NOx_abs="108.323291" fuel_abs="126.615627" electricity_abs="0"/>
    </tripinfo>
    <tripinfo id="L4-AV-5" depart="21.00" departLane="top-approaching_0" departPos="5.10" departSpeed="0.00" departDelay="0.00" arrival="170.80" arrivalLane="left-exit_0" arrivalPos="831.00" arrivalSpeed="17.00" duration="149.80" routeLength="1386.28" waitingTime="50.40" waitingCount="1" stopTime="0.00" timeLoss="65.68" rerouteNo="0" devices="tripinfo_L4-AV-5 emissions_L4-AV-5 ssm_L4-AV-5 toc_L4-AV-5 driverstateL4-AV-5" vType="L4-AV-30@L4-AV-5" speedFactor="1.02" vaporized="">
        <emissions CO_abs="11234.166861" CO2_abs="446644.208886" HC_abs="57.664579" PMx_abs="7.216538" NOx_abs="170.940661" fuel_abs="191.998029" electricity_abs="0"/>
    </tripinfo>
    <tripinfo id="L2-CV-24" depart="100.80" departLane="bottom-approaching_0" departPos="5.10" departSpeed="0.00" departDelay="0.00" arrival="171.30" arrivalLane="right-exit_0" arrivalPos="486.40" arrivalSpeed="17.81" duration="70.50" routeLength="979.93" waitingTime="0.10" waitingCount="1" stopTime="0.00" timeLoss="14.62" rerouteNo="0" devices="tripinfo_L2-CV-24 emissions_L2-CV-24 ssm_L2-CV-24 toc_L2-CV-24 driverstateL2-CV-24" vType="L2-CV-35" speedFactor="1.07" vaporized="">
        <emissions CO_abs="2450.932731" CO2_abs="245672.307264" HC_abs="15.288384" PMx_abs="3.390352" NOx_abs="89.332308" fuel_abs="105.604551" electricity_abs="0"/>
    </tripinfo>
    <tripinfo id="L2-AV-11" depart="92.40" departLane="top-approaching_0" departPos="5.10" departSpeed="0.00" departDelay="0.00" arrival="174.10" arrivalLane="right-exit_0" arrivalPos="486.40" arrivalSpeed="15.32" duration="81.70" routeLength="992.21" waitingTime="0.00" waitingCount="0" stopTime="0.00" timeLoss="15.86" rerouteNo="0" devices="tripinfo_L2-AV-11 emissions_L2-AV-11 ssm_L2-AV-11 toc_L2-AV-11 driverstateL2-AV-11" vType="L2-AV-81" speedFactor="0.92" vaporized="">
        <emissions CO_abs="2662.000358" CO2_abs="247831.211801" HC_abs="15.475073" PMx_abs="3.162266" NOx_abs="89.899013" fuel_abs="106.532843" electricity_abs="0"/>
    </tripinfo>
    <tripinfo id="L2-AV-3" depart="28.50" departLane="top-approaching_0" departPos="5.10" departSpeed="0.00" departDelay="3.30" arrival="174.70" arrivalLane="left-exit_0" arrivalPos="831.00" arrivalSpeed="17.50" duration="146.20" routeLength="1386.28" waitingTime="0.00" waitingCount="0" stopTime="0.00" timeLoss="64.60" rerouteNo="0" devices="tripinfo_L2-AV-3 emissions_L2-AV-3 ssm_L2-AV-3 toc_L2-AV-3 driverstateL2-AV-3" vType="L0-HDV-86" speedFactor="1.05" vaporized="">
        <emissions CO_abs="3719.949050" CO2_abs="276747.580828" HC_abs="22.384241" PMx_abs="4.294363" NOx_abs="105.084991" fuel_abs="118.962643" electricity_abs="0"/>
    </tripinfo>
    <tripinfo id="L4-AV-20" depart="84.00" departLane="top-approaching_0" departPos="5.10" departSpeed="0.00" departDelay="0.00" arrival="185.60" arrivalLane="left-exit_0" arrivalPos="831.00" arrivalSpeed="17.06" duration="101.60" routeLength="1386.28" waitingTime="0.00" waitingCount="0" stopTime="0.00" timeLoss="17.75" rerouteNo="0" devices="tripinfo_L4-AV-20 emissions_L4-AV-20 ssm_L4-AV-20 toc_L4-AV-20 driverstateL4-AV-20" vType="L4-AV-0@L4-AV-20" speedFactor="1.02" vaporized="">
        <emissions CO_abs="2778.258351" CO2_abs="319978.448315" HC_abs="17.128778" PMx_abs="3.932383" NOx_abs="113.035869" fuel_abs="137.545987" electricity_abs="0"/>
    </tripinfo>
    <tripinfo id="L4-AV-13" depart="54.60" departLane="top-approaching_0" departPos="5.10" departSpeed="0.00" departDelay="0.00" arrival="188.10" arrivalLane="left-exit_0" arrivalPos="831.00" arrivalSpeed="14.45" duration="133.50" routeLength="1386.28" waitingTime="0.00" waitingCount="0" stopTime="0.00" timeLoss="35.64" rerouteNo="0" devices="tripinfo_L4-AV-13 emissions_L4-AV-13 ssm_L4-AV-13 toc_L4-AV-13 driverstateL4-AV-13" vType="L0-HDV-43" speedFactor="0.88" vaporized="">
        <emissions CO_abs="4249.135042" CO2_abs="304793.114949" HC_abs="25.680446" PMx_abs="4.823064" NOx_abs="118.878140" fuel_abs="131.018080" electricity_abs="0"/>
    </tripinfo>
    <tripinfo id="L2-CV-20" depart="87.90" departLane="top-approaching_0" departPos="5.10" departSpeed="0.00" departDelay="3.90" arrival="188.60" arrivalLane="left-exit_1" arrivalPos="831.00" arrivalSpeed="17.21" duration="100.70" routeLength="1386.28" waitingTime="0.00" waitingCount="0" stopTime="0.00" timeLoss="17.57" rerouteNo="0" devices="tripinfo_L2-CV-20 emissions_L2-CV-20 ssm_L2-CV-20 toc_L2-CV-20 driverstateL2-CV-20" vType="L2-CV-38@L2-CV-20" speedFactor="1.03" vaporized="">
        <emissions CO_abs="2507.955900" CO2_abs="274001.870849" HC_abs="16.062121" PMx_abs="3.654339" NOx_abs="99.628242" fuel_abs="117.782208" electricity_abs="0"/>
    </tripinfo>
    <tripinfo id="L0-HDV-5" depart="42.00" departLane="bottom-approaching_0" departPos="5.10" departSpeed="0.00" departDelay="0.00" arrival="192.50" arrivalLane="left-exit_0" arrivalPos="831.00" arrivalSpeed="17.07" duration="150.50" routeLength="1396.90" waitingTime="48.70" waitingCount="2" stopTime="0.00" timeLoss="67.14" rerouteNo="0" devices="tripinfo_L0-HDV-5 emissions_L0-HDV-5 ssm_L0-HDV-5" vType="L0-HDV-54" speedFactor="1.04" vaporized="">
        <emissions CO_abs="13646.080387" CO2_abs="513649.412516" HC_abs="74.276879" PMx_abs="10.654649" NOx_abs="217.808795" fuel_abs="220.798646" electricity_abs="0"/>
    </tripinfo>
    <tripinfo id="L4-AV-4" depart="16.80" departLane="left-long-approaching_0" departPos="5.10" departSpeed="0.00" departDelay="0.00" arrival="193.20" arrivalLane="bottom-exit_0" arrivalPos="489.60" arrivalSpeed="16.58" duration="176.40" routeLength="1383.54" waitingTime="72.70" waitingCount="1" stopTime="0.00" timeLoss="90.48" rerouteNo="0" devices="tripinfo_L4-AV-4 emissions_L4-AV-4 ssm_L4-AV-4 toc_L4-AV-4 driverstateL4-AV-4" vType="L4-AV-Right-20" speedFactor="0.99" vaporized="">
        <emissions CO_abs="14993.779347" CO2_abs="503719.676370" HC_abs="76.356074" PMx_abs="8.569115" NOx_abs="197.281395" fuel_abs="216.534242" electricity_abs="0"/>
    </tripinfo>
    <tripinfo id="L0-HDV-9" depart="75.60" departLane="right-approaching_0" departPos="5.10" departSpeed="0.00" departDelay="0.00" arrival="193.20" arrivalLane="top-exit_1" arrivalPos="486.40" arrivalSpeed="18.64" duration="117.60" routeLength="979.43" waitingTime="0.00" waitingCount="0" stopTime="0.00" timeLoss="64.59" rerouteNo="0" devices="tripinfo_L0-HDV-9 emissions_L0-HDV-9 ssm_L0-HDV-9" vType="L0-HDV-57" speedFactor="1.13" vaporized="">
        <emissions CO_abs="7558.401962" CO2_abs="322601.528497" HC_abs="42.046559" PMx_abs="6.470220" NOx_abs="135.159379" fuel_abs="138.673812" electricity_abs="0"/>
    </tripinfo>
    <tripinfo id="L4-CV-5" depart="60.00" departLane="bottom-approaching_0" departPos="5.10" departSpeed="0.00" departDelay="0.00" arrival="193.60" arrivalLane="left-exit_1" arrivalPos="831.00" arrivalSpeed="17.45" duration="133.60" routeLength="1396.90" waitingTime="26.20" waitingCount="2" stopTime="0.00" timeLoss="51.29" rerouteNo="0" devices="tripinfo_L4-CV-5 emissions_L4-CV-5 ssm_L4-CV-5 toc_L4-CV-5 driverstateL4-CV-5" vType="L4-CV-23@L4-CV-5" speedFactor="1.05" vaporized="">
        <emissions CO_abs="5406.876714" CO2_abs="341397.613772" HC_abs="29.858013" PMx_abs="5.007547" NOx_abs="126.052597" fuel_abs="146.754140" electricity_abs="0"/>
    </tripinfo>
    <tripinfo id="L4-AV-14" depart="58.80" departLane="right-approaching_0" departPos="5.10" departSpeed="0.00" departDelay="0.00" arrival="194.40" arrivalLane="top-exit_0" arrivalPos="486.40" arrivalSpeed="14.25" duration="135.60" routeLength="979.43" waitingTime="55.80" waitingCount="1" stopTime="0.00" timeLoss="65.68" rerouteNo="0" devices="tripinfo_L4-AV-14 emissions_L4-AV-14 ssm_L4-AV-14 toc_L4-AV-14 driverstateL4-AV-14" vType="L4-AV-58" speedFactor="0.85" vaporized="">
        <emissions CO_abs="11269.082450" CO2_abs="374773.457865" HC_abs="57.980417" PMx_abs="6.213929" NOx_abs="147.451508" fuel_abs="161.104371" electricity_abs="0"/>
    </tripinfo>
    <tripinfo id="L0-HDV-10" depart="87.50" departLane="right-approaching_0" departPos="5.10" departSpeed="0.00" departDelay="3.50" arrival="195.60" arrivalLane="top-exit_1" arrivalPos="486.40" arrivalSpeed="20.99" duration="108.10" routeLength="979.43" waitingTime="0.00" waitingCount="0" stopTime="0.00" timeLoss="60.62" rerouteNo="0" devices="tripinfo_L0-HDV-10 emissions_L0-HDV-10 ssm_L0-HDV-10" vType="L0-HDV-46" speedFactor="1.26" vaporized="">
        <emissions CO_abs="4213.435324" CO2_abs="254595.412356" HC_abs="25.042437" PMx_abs="4.640340" NOx_abs="101.838311" fuel_abs="109.440009" electricity_abs="0"/>
    </tripinfo>
    <tripinfo id="L4-AV-15" depart="65.60" departLane="right-approaching_0" departPos="5.10" departSpeed="0.00" departDelay="2.60" arrival="195.90" arrivalLane="top-exit_0" arrivalPos="486.40" arrivalSpeed="16.34" duration="130.30" routeLength="979.43" waitingTime="0.00" waitingCount="0" stopTime="0.00" timeLoss="71.53" rerouteNo="0" devices="tripinfo_L4-AV-15 emissions_L4-AV-15 ssm_L4-AV-15 toc_L4-AV-15 driverstateL4-AV-15" vType="L4-AV-59" speedFactor="1.02" vaporized="">
        <emissions CO_abs="3023.103188" CO2_abs="189561.482801" HC_abs="17.299982" PMx_abs="3.039587" NOx_abs="73.762916" fuel_abs="81.484949" electricity_abs="0"/>
    </tripinfo>
    <tripinfo id="L2-CV-21" depart="88.20" departLane="left-long-approaching_0" departPos="5.10" departSpeed="0.00" departDelay="0.00" arrival="196.30" arrivalLane="bottom-exit_1" arrivalPos="489.60" arrivalSpeed="18.64" duration="108.10" routeLength="1383.54" waitingTime="0.00" waitingCount="0" stopTime="0.00" timeLoss="31.65" rerouteNo="0" devices="tripinfo_L2-CV-21 emissions_L2-CV-21 ssm_L2-CV-21 toc_L2-CV-21 driverstateL2-CV-21" vType="L2-CV-Right-25" speedFactor="1.12" vaporized="">
        <emissions CO_abs="3631.114933" CO2_abs="327099.825490" HC_abs="21.801977" PMx_abs="4.786048" NOx_abs="119.367397" fuel_abs="140.606919" electricity_abs="0"/>
    </tripinfo>
    <tripinfo id="L2-CV-6" depart="25.20" departLane="left-long-approaching_0" departPos="5.10" departSpeed="0.00" departDelay="0.00" arrival="196.50" arrivalLane="bottom-exit_0" arrivalPos="489.60" arrivalSpeed="15.47" duration="171.30" routeLength="1383.54" waitingTime="61.50" waitingCount="1" stopTime="0.00" timeLoss="79.33" rerouteNo="0" devices="tripinfo_L2-CV-6 emissions_L2-CV-6 ssm_L2-CV-6 toc_L2-CV-6 driverstateL2-CV-6" vType="L2-CV-Right-28" speedFactor="0.93" vaporized="">
        <emissions CO_abs="11502.513107" CO2_abs="447344.359337" HC_abs="59.214377" PMx_abs="6.913250" NOx_abs="170.619936" fuel_abs="192.299636" electricity_abs="0"/>
    </tripinfo>