<?xml version="1.0" encoding="UTF-8"?>

<!-- generated on 03/15/21 17:26:13 by Eclipse SUMO GUI Version 1.8.0
<configuration xmlns:xsi="http://www.w3.org/2001/XMLSchema-instance" xsi:noNamespaceSchemaLocation="http://sumo.dlr.de/xsd/sumoConfiguration.xsd">

    <input>
        <net-file value="Roadworks\RealTMSPenetration3\../RoadworksIntersection.net.xml"/>
        <route-files value="Roadworks\RealTMSPenetration3\Route-Files/L4-CV-Route.rou.xml,Roadworks\RealTMSPenetration3\Route-Files/L4-AV-Route.rou.xml,Roadworks\RealTMSPenetration3\Route-Files/L2-CV-Route.rou.xml,Roadworks\RealTMSPenetration3\Route-Files/L2-AV-Route.rou.xml,Roadworks\RealTMSPenetration3\Route-Files/L0-HDV-Route.rou.xml"/>
        <additional-files value="Roadworks\RealTMSPenetration3\Additional-Files/Roadworks-RealTMS-Penetration3-Detectors.add.xml,Roadworks\RealTMSPenetration3\Additional-Files/Roadworks-RealTMS-Penetration3-Rerouters.add.xml,Roadworks\RealTMSPenetration3\../Additional-Files/Roadworks-Traffic-lights.add.xml,Roadworks\RealTMSPenetration3\../Additional-Files/Roadworks-Traffic-Signs.add.xml,Roadworks\RealTMSPenetration3\PreparingVehicleModels/Vehicle-Models/L4-CV.add.xml,Roadworks\RealTMSPenetration3\PreparingVehicleModels/Vehicle-Models/L4-CV-Left.add.xml,Roadworks\RealTMSPenetration3\PreparingVehicleModels/Vehicle-Models/L4-CV-Right.add.xml,Roadworks\RealTMSPenetration3\PreparingVehicleModels/Vehicle-Models/L4-AV.add.xml,Roadworks\RealTMSPenetration3\PreparingVehicleModels/Vehicle-Models/L4-AV-Left.add.xml,Roadworks\RealTMSPenetration3\PreparingVehicleModels/Vehicle-Models/L4-AV-Right.add.xml,Roadworks\RealTMSPenetration3\PreparingVehicleModels/Vehicle-Models/L2-CV.add.xml,Roadworks\RealTMSPenetration3\PreparingVehicleModels/Vehicle-Models/L2-CV-Left.add.xml,Roadworks\RealTMSPenetration3\PreparingVehicleModels/Vehicle-Models/L2-CV-Right.add.xml,Roadworks\RealTMSPenetration3\PreparingVehicleModels/Vehicle-Models/L2-AV.add.xml,Roadworks\RealTMSPenetration3\PreparingVehicleModels/Vehicle-Models/L2-AV-Left.add.xml,Roadworks\RealTMSPenetration3\PreparingVehicleModels/Vehicle-Models/L2-AV-Right.add.xml,Roadworks\RealTMSPenetration3\PreparingVehicleModels/Vehicle-Models/L0-HDV.add.xml,Roadworks\RealTMSPenetration3\PreparingVehicleModels/Vehicle-Models/L0-HDV-Left.add.xml,Roadworks\RealTMSPenetration3\PreparingVehicleModels/Vehicle-Models/L0-HDV-Straight.add.xml"/>
    </input>

    <output>
        <tripinfo-output value="Roadworks\RealTMSPenetration3\Output-Files\TripInfo.xml"/>
    </output>

    <time>
        <begin value="0"/>
        <step-length value="0.1"/>
    </time>

    <processing>
        <ignore-route-errors value="true"/>
        <waiting-time-memory value="300"/>
        <default.action-step-length value="0.1"/>
    </processing>

    <emissions>
        <device.emissions.probability value="1"/>
    </emissions>

    <traci_server>
        <remote-port value="49747"/>
    </traci_server>

    <gui_only>
        <tracker-interval value="0.1"/>
    </gui_only>

</configuration>
-->

<tripinfos xmlns:xsi="http://www.w3.org/2001/XMLSchema-instance" xsi:noNamespaceSchemaLocation="http://sumo.dlr.de/xsd/tripinfo_file.xsd">
    <tripinfo id="L4-CV-3" depart="9.00" departLane="right-approaching_0" departPos="5.10" departSpeed="0.00" departDelay="0.00" arrival="81.10" arrivalLane="top-exit_0" arrivalPos="486.40" arrivalSpeed="17.45" duration="72.10" routeLength="979.43" waitingTime="4.40" waitingCount="1" stopTime="0.00" timeLoss="15.08" rerouteNo="0" devices="tripinfo_L4-CV-3 emissions_L4-CV-3 ssm_L4-CV-3 toc_L4-CV-3 driverstateL4-CV-3" vType="L4-CV-23" speedFactor="1.05" vaporized="">
        <emissions CO_abs="3173.317305" CO2_abs="255623.605297" HC_abs="17.637794" PMx_abs="3.729292" NOx_abs="93.906455" fuel_abs="109.882257" electricity_abs="0"/>
    </tripinfo>
    <tripinfo id="L4-AV-2" depart="24.00" departLane="right-approaching_0" departPos="5.10" departSpeed="0.00" departDelay="0.00" arrival="92.90" arrivalLane="top-exit_0" arrivalPos="486.40" arrivalSpeed="20.01" duration="68.90" routeLength="979.43" waitingTime="0.00" waitingCount="0" stopTime="0.00" timeLoss="19.11" rerouteNo="0" devices="tripinfo_L4-AV-2 emissions_L4-AV-2 ssm_L4-AV-2 toc_L4-AV-2 driverstateL4-AV-2" vType="L4-AV-0" speedFactor="1.20" vaporized="">
        <emissions CO_abs="2332.438838" CO2_abs="247128.719895" HC_abs="14.848844" PMx_abs="3.447482" NOx_abs="89.907672" fuel_abs="106.230465" electricity_abs="0"/>
    </tripinfo>
    <tripinfo id="L4-CV-19" depart="57.00" departLane="right-approaching_0" departPos="5.10" departSpeed="0.00" departDelay="0.00" arrival="117.30" arrivalLane="bottom-exit_1" arrivalPos="489.60" arrivalSpeed="19.65" duration="60.30" routeLength="992.90" waitingTime="0.00" waitingCount="0" stopTime="0.00" timeLoss="8.92" rerouteNo="0" devices="tripinfo_L4-CV-19 emissions_L4-CV-19 ssm_L4-CV-19 toc_L4-CV-19 driverstateL4-CV-19" vType="L4-CV-21" speedFactor="1.18" vaporized="">
        <emissions CO_abs="2232.400171" CO2_abs="244538.635914" HC_abs="14.167291" PMx_abs="3.717140" NOx_abs="89.134267" fuel_abs="105.116700" electricity_abs="0"/>
    </tripinfo>
    <tripinfo id="L2-CV-2" depart="27.90" departLane="right-approaching_0" departPos="5.10" departSpeed="0.00" departDelay="3.90" arrival="121.50" arrivalLane="left-exit_0" arrivalPos="831.00" arrivalSpeed="16.59" duration="93.60" routeLength="1399.16" waitingTime="0.00" waitingCount="0" stopTime="0.00" timeLoss="7.22" rerouteNo="0" devices="tripinfo_L2-CV-2 emissions_L2-CV-2 ssm_L2-CV-2 toc_L2-CV-2 driverstateL2-CV-2" vType="L2-CV-56@L2-CV-2" speedFactor="1.00" vaporized="">
        <emissions CO_abs="1762.706941" CO2_abs="288240.515048" HC_abs="10.675250" PMx_abs="3.089628" NOx_abs="97.084693" fuel_abs="123.903101" electricity_abs="0"/>
    </tripinfo>
    <tripinfo id="L2-AV-0" depart="3.60" departLane="bottom-approaching_0" departPos="5.10" departSpeed="0.00" departDelay="3.60" arrival="143.20" arrivalLane="right-exit_0" arrivalPos="486.40" arrivalSpeed="16.85" duration="139.60" routeLength="979.93" waitingTime="68.20" waitingCount="1" stopTime="0.00" timeLoss="80.57" rerouteNo="0" devices="tripinfo_L2-AV-0 emissions_L2-AV-0 ssm_L2-AV-0 toc_L2-AV-0 driverstateL2-AV-0" vType="L2-AV-32" speedFactor="1.01" vaporized="">
        <emissions CO_abs="13647.616244" CO2_abs="418462.596813" HC_abs="69.323181" PMx_abs="7.735302" NOx_abs="168.685440" fuel_abs="179.884804" electricity_abs="0"/>
    </tripinfo>
    <tripinfo id="L4-CV-6" depart="18.00" departLane="top-approaching_0" departPos="5.10" departSpeed="0.00" departDelay="0.00" arrival="146.50" arrivalLane="bottom-exit_0" arrivalPos="489.60" arrivalSpeed="16.52" duration="128.50" routeLength="995.17" waitingTime="52.80" waitingCount="1" stopTime="0.00" timeLoss="68.18" rerouteNo="0" devices="tripinfo_L4-CV-6 emissions_L4-CV-6 ssm_L4-CV-6 toc_L4-CV-6 driverstateL4-CV-6" vType="L4-CV-12" speedFactor="0.99" vaporized="">
        <emissions CO_abs="11373.031542" CO2_abs="386057.916585" HC_abs="58.263155" PMx_abs="6.749886" NOx_abs="152.940656" fuel_abs="165.954530" electricity_abs="0"/>
    </tripinfo>
    <tripinfo id="L4-CV-0" depart="0.00" departLane="bottom-approaching_0" departPos="5.10" departSpeed="0.00" departDelay="0.00" arrival="147.40" arrivalLane="top-exit_0" arrivalPos="486.40" arrivalSpeed="16.26" duration="147.40" routeLength="995.17" waitingTime="69.20" waitingCount="1" stopTime="0.00" timeLoss="86.11" rerouteNo="0" devices="tripinfo_L4-CV-0 emissions_L4-CV-0 ssm_L4-CV-0 toc_L4-CV-0 driverstateL4-CV-0" vType="L4-CV-89" speedFactor="0.98" vaporized="">
        <emissions CO_abs="14207.844257" CO2_abs="428303.603431" HC_abs="72.078345" PMx_abs="7.789720" NOx_abs="172.481013" fuel_abs="184.115518" electricity_abs="0"/>
    </tripinfo>
    <tripinfo id="L4-CV-9" depart="27.00" departLane="top-approaching_0" departPos="5.10" departSpeed="0.00" departDelay="0.00" arrival="148.30" arrivalLane="bottom-exit_0" arrivalPos="489.60" arrivalSpeed="16.97" duration="121.30" routeLength="995.17" waitingTime="39.70" waitingCount="23" stopTime="0.00" timeLoss="62.80" rerouteNo="0" devices="tripinfo_L4-CV-9 emissions_L4-CV-9 ssm_L4-CV-9 toc_L4-CV-9 driverstateL4-CV-9" vType="L4-CV-59" speedFactor="1.02" vaporized="">
        <emissions CO_abs="7974.893275" CO2_abs="338599.226956" HC_abs="42.161415" PMx_abs="5.555617" NOx_abs="130.968892" fuel_abs="145.552450" electricity_abs="0"/>
    </tripinfo>
    <tripinfo id="L4-CV-10" depart="30.00" departLane="bottom-approaching_0" departPos="5.10" departSpeed="0.00" departDelay="0.00" arrival="148.80" arrivalLane="right-exit_0" arrivalPos="486.40" arrivalSpeed="16.25" duration="118.80" routeLength="979.93" waitingTime="34.50" waitingCount="1" stopTime="0.00" timeLoss="57.61" rerouteNo="0" devices="tripinfo_L4-CV-10 emissions_L4-CV-10 ssm_L4-CV-10 toc_L4-CV-10 driverstateL4-CV-10" vType="L4-CV-30" speedFactor="0.98" vaporized="">
        <emissions CO_abs="7191.483647" CO2_abs="316608.275125" HC_abs="38.190641" PMx_abs="4.989113" NOx_abs="121.618422" fuel_abs="136.099320" electricity_abs="0"/>
    </tripinfo>
    <tripinfo id="L4-CV-8" depart="24.00" departLane="bottom-approaching_0" departPos="5.10" departSpeed="0.00" departDelay="0.00" arrival="151.50" arrivalLane="top-exit_0" arrivalPos="486.40" arrivalSpeed="15.61" duration="127.50" routeLength="995.17" waitingTime="40.50" waitingCount="15" stopTime="0.00" timeLoss="63.78" rerouteNo="0" devices="tripinfo_L4-CV-8 emissions_L4-CV-8 ssm_L4-CV-8 toc_L4-CV-8 driverstateL4-CV-8" vType="L4-CV-81" speedFactor="0.94" vaporized="">
        <emissions CO_abs="7982.559259" CO2_abs="331843.815560" HC_abs="42.097765" PMx_abs="5.175831" NOx_abs="127.617823" fuel_abs="142.648995" electricity_abs="0"/>
    </tripinfo>
    <tripinfo id="L4-AV-4" depart="48.00" departLane="top-approaching_0" departPos="5.10" departSpeed="0.00" departDelay="0.00" arrival="151.60" arrivalLane="right-exit_0" arrivalPos="486.40" arrivalSpeed="16.83" duration="103.60" routeLength="992.21" waitingTime="27.30" waitingCount="2" stopTime="0.00" timeLoss="43.70" rerouteNo="0" devices="tripinfo_L4-AV-4 emissions_L4-AV-4 ssm_L4-AV-4 toc_L4-AV-4 driverstateL4-AV-4" vType="L4-AV-21" speedFactor="1.01" vaporized="">
        <emissions CO_abs="7115.017810" CO2_abs="314914.165519" HC_abs="37.265291" PMx_abs="5.164809" NOx_abs="121.480701" fuel_abs="135.370698" electricity_abs="0"/>
    </tripinfo>
    <tripinfo id="L4-AV-5" depart="60.00" departLane="top-approaching_0" departPos="5.10" departSpeed="0.00" departDelay="0.00" arrival="154.60" arrivalLane="bottom-exit_0" arrivalPos="489.60" arrivalSpeed="15.11" duration="94.60" routeLength="995.17" waitingTime="0.10" waitingCount="1" stopTime="0.00" timeLoss="28.68" rerouteNo="0" devices="tripinfo_L4-AV-5 emissions_L4-AV-5 ssm_L4-AV-5 toc_L4-AV-5 driverstateL4-AV-5" vType="L4-AV-3" speedFactor="0.91" vaporized="">
        <emissions CO_abs="2835.246025" CO2_abs="240956.400833" HC_abs="16.260328" PMx_abs="2.936429" NOx_abs="86.541336" fuel_abs="103.578077" electricity_abs="0"/>
    </tripinfo>
    <tripinfo id="L4-CV-30" depart="90.00" departLane="bottom-approaching_0" departPos="5.10" departSpeed="0.00" departDelay="0.00" arrival="159.50" arrivalLane="right-exit_0" arrivalPos="486.40" arrivalSpeed="15.96" duration="69.50" routeLength="979.93" waitingTime="0.00" waitingCount="0" stopTime="0.00" timeLoss="7.16" rerouteNo="0" devices="tripinfo_L4-CV-30 emissions_L4-CV-30 ssm_L4-CV-30 toc_L4-CV-30 driverstateL4-CV-30" vType="L4-CV-10" speedFactor="0.96" vaporized="">
        <emissions CO_abs="1720.655225" CO2_abs="226598.809144" HC_abs="10.844086" PMx_abs="2.712142" NOx_abs="79.675397" fuel_abs="97.405666" electricity_abs="0"/>
    </tripinfo>
    <tripinfo id="L4-CV-18" depart="54.00" departLane="top-approaching_0" departPos="5.10" departSpeed="0.00" departDelay="0.00" arrival="160.00" arrivalLane="right-exit_1" arrivalPos="486.40" arrivalSpeed="18.87" duration="106.00" routeLength="992.21" waitingTime="18.80" waitingCount="2" stopTime="0.00" timeLoss="52.65" rerouteNo="0" devices="tripinfo_L4-CV-18 emissions_L4-CV-18 ssm_L4-CV-18 toc_L4-CV-18 driverstateL4-CV-18" vType="L4-CV-7" speedFactor="1.13" vaporized="">
        <emissions CO_abs="5900.480918" CO2_abs="316413.422976" HC_abs="32.872961" PMx_abs="5.273975" NOx_abs="121.822995" fuel_abs="136.014268" electricity_abs="0"/>
    </tripinfo>
    <tripinfo id="L2-CV-5" depart="60.10" departLane="top-approaching_0" departPos="5.10" departSpeed="0.00" departDelay="0.10" arrival="164.40" arrivalLane="right-exit_0" arrivalPos="486.40" arrivalSpeed="16.74" duration="104.30" routeLength="992.21" waitingTime="7.80" waitingCount="30" stopTime="0.00" timeLoss="44.03" rerouteNo="0" devices="tripinfo_L2-CV-5 emissions_L2-CV-5 ssm_L2-CV-5 toc_L2-CV-5 driverstateL2-CV-5" vType="L2-CV-97" speedFactor="1.00" vaporized="">
        <emissions CO_abs="6135.630971" CO2_abs="310834.129976" HC_abs="32.872142" PMx_abs="4.788461" NOx_abs="118.112380" fuel_abs="133.616558" electricity_abs="0"/>
    </tripinfo>
    <tripinfo id="L4-CV-5" depart="15.00" departLane="top-approaching_0" departPos="5.10" departSpeed="0.00" departDelay="0.00" arrival="166.90" arrivalLane="left-exit_0" arrivalPos="831.00" arrivalSpeed="18.71" duration="151.90" routeLength="1386.28" waitingTime="56.90" waitingCount="2" stopTime="0.00" timeLoss="75.47" rerouteNo="0" devices="tripinfo_L4-CV-5 emissions_L4-CV-5 ssm_L4-CV-5 toc_L4-CV-5 driverstateL4-CV-5" vType="L0-HDV-12" speedFactor="1.12" vaporized="">
        <emissions CO_abs="12749.532997" CO2_abs="450826.776395" HC_abs="67.975606" PMx_abs="8.729849" NOx_abs="183.986646" fuel_abs="193.795367" electricity_abs="0"/>
    </tripinfo>
    <tripinfo id="L4-CV-24" depart="72.00" departLane="top-approaching_0" departPos="5.10" departSpeed="0.00" departDelay="0.00" arrival="167.00" arrivalLane="right-exit_1" arrivalPos="486.40" arrivalSpeed="17.00" duration="95.00" routeLength="992.21" waitingTime="0.30" waitingCount="3" stopTime="0.00" timeLoss="35.66" rerouteNo="0" devices="tripinfo_L4-CV-24 emissions_L4-CV-24 ssm_L4-CV-24 toc_L4-CV-24 driverstateL4-CV-24" vType="L4-CV-30" speedFactor="1.02" vaporized="">
        <emissions CO_abs="5277.535342" CO2_abs="296988.189211" HC_abs="29.102464" PMx_abs="4.496975" NOx_abs="112.332531" fuel_abs="127.664371" electricity_abs="0"/>
    </tripinfo>
    <tripinfo id="L2-CV-3" depart="37.10" departLane="top-approaching_0" departPos="5.10" departSpeed="0.00" departDelay="1.10" arrival="174.10" arrivalLane="left-exit_0" arrivalPos="831.00" arrivalSpeed="18.28" duration="137.00" routeLength="1386.28" waitingTime="28.50" waitingCount="28" stopTime="0.00" timeLoss="58.92" rerouteNo="0" devices="tripinfo_L2-CV-3 emissions_L2-CV-3 ssm_L2-CV-3 toc_L2-CV-3 driverstateL2-CV-3" vType="L2-CV-24@L2-CV-3" speedFactor="1.10" vaporized="">
        <emissions CO_abs="6129.894604" CO2_abs="338556.020675" HC_abs="33.461189" PMx_abs="5.088162" NOx_abs="126.331734" fuel_abs="145.533128" electricity_abs="0"/>
    </tripinfo>
    <tripinfo id="L4-CV-1" depart="3.00" departLane="top-approaching_0" departPos="5.10" departSpeed="0.00" departDelay="0.00" arrival="179.00" arrivalLane="left-exit_0" arrivalPos="831.00" arrivalSpeed="13.99" duration="176.00" routeLength="1386.28" waitingTime="65.10" waitingCount="1" stopTime="0.00" timeLoss="73.79" rerouteNo="0" devices="tripinfo_L4-CV-1 emissions_L4-CV-1 ssm_L4-CV-1 toc_L4-CV-1 driverstateL4-CV-1" vType="L4-CV-74@L4-CV-1" speedFactor="0.84" vaporized="">
        <emissions CO_abs="12739.237326" CO2_abs="465241.140379" HC_abs="66.120746" PMx_abs="7.080787" NOx_abs="178.278125" fuel_abs="199.993787" electricity_abs="0"/>
    </tripinfo>
    <tripinfo id="L4-CV-23" depart="69.00" departLane="top-approaching_0" departPos="5.10" departSpeed="0.00" departDelay="0.00" arrival="180.50" arrivalLane="left-exit_1" arrivalPos="831.00" arrivalSpeed="16.50" duration="111.50" routeLength="1386.28" waitingTime="4.80" waitingCount="2" stopTime="0.00" timeLoss="25.19" rerouteNo="0" devices="tripinfo_L4-CV-23 emissions_L4-CV-23 ssm_L4-CV-23 toc_L4-CV-23 driverstateL4-CV-23" vType="L0-HDV-2" speedFactor="0.99" vaporized="">
        <emissions CO_abs="4453.546348" CO2_abs="306708.003396" HC_abs="26.299095" PMx_abs="4.654564" NOx_abs="116.195329" fuel_abs="131.841826" electricity_abs="0"/>
    </tripinfo>
    <tripinfo id="L4-CV-11" depart="33.00" departLane="top-approaching_0" departPos="5.10" departSpeed="0.00" departDelay="0.00" arrival="182.30" arrivalLane="left-exit_0" arrivalPos="831.00" arrivalSpeed="14.83" duration="149.30" routeLength="1386.28" waitingTime="30.80" waitingCount="2" stopTime="0.00" timeLoss="53.03" rerouteNo="0" devices="tripinfo_L4-CV-11 emissions_L4-CV-11 ssm_L4-CV-11 toc_L4-CV-11 driverstateL4-CV-11" vType="L4-CV-95@L4-CV-11" speedFactor="0.89" vaporized="">
        <emissions CO_abs="6425.739632" CO2_abs="370490.549340" HC_abs="34.947791" PMx_abs="4.709008" NOx_abs="134.527554" fuel_abs="159.261483" electricity_abs="0"/>
    </tripinfo>
    <tripinfo id="L4-CV-37" depart="111.60" departLane="top-approaching_0" departPos="5.10" departSpeed="0.00" departDelay="0.60" arrival="188.80" arrivalLane="right-exit_0" arrivalPos="486.40" arrivalSpeed="14.25" duration="77.20" routeLength="992.21" waitingTime="0.00" waitingCount="0" stopTime="0.00" timeLoss="6.39" rerouteNo="0" devices="tripinfo_L4-CV-37 emissions_L4-CV-37 ssm_L4-CV-37 toc_L4-CV-37 driverstateL4-CV-37" vType="L4-CV-58" speedFactor="0.85" vaporized="">
        <emissions CO_abs="1560.389379" CO2_abs="218508.495298" HC_abs="10.259902" PMx_abs="2.176933" NOx_abs="74.876508" fuel_abs="93.928526" electricity_abs="0"/>
    </tripinfo>
    <tripinfo id="L4-CV-40" depart="120.00" departLane="top-approaching_0" departPos="5.10" departSpeed="0.00" departDelay="0.00" arrival="189.00" arrivalLane="right-exit_1" arrivalPos="486.40" arrivalSpeed="16.60" duration="69.00" routeLength="992.21" waitingTime="0.00" waitingCount="0" stopTime="0.00" timeLoss="8.19" rerouteNo="0" devices="tripinfo_L4-CV-40 emissions_L4-CV-40 ssm_L4-CV-40 toc_L4-CV-40 driverstateL4-CV-40" vType="L4-CV-88" speedFactor="1.00" vaporized="">
        <emissions CO_abs="1829.069554" CO2_abs="227502.214944" HC_abs="11.071913" PMx_abs="2.748223" NOx_abs="79.636883" fuel_abs="97.794046" electricity_abs="0"/>
    </tripinfo>
    <tripinfo id="L4-AV-3" depart="38.90" departLane="bottom-approaching_0" departPos="5.10" departSpeed="0.00" departDelay="2.90" arrival="189.70" arrivalLane="left-exit_1" arrivalPos="831.00" arrivalSpeed="17.61" duration="150.80" routeLength="1396.90" waitingTime="43.10" waitingCount="2" stopTime="0.00" timeLoss="69.05" rerouteNo="0" devices="tripinfo_L4-AV-3 emissions_L4-AV-3 ssm_L4-AV-3 toc_L4-AV-3 driverstateL4-AV-3" vType="L0-HDV-1" speedFactor="1.06" vaporized="">
        <emissions CO_abs="10408.533908" CO2_abs="330396.016377" HC_abs="54.129497" PMx_abs="6.248138" NOx_abs="135.260650" fuel_abs="142.027117" electricity_abs="0"/>
    </tripinfo>
    <tripinfo id="L4-CV-29" depart="87.00" departLane="top-approaching_0" departPos="5.10" departSpeed="0.00" departDelay="0.00" arrival="190.60" arrivalLane="left-exit_0" arrivalPos="831.00" arrivalSpeed="15.01" duration="103.60" routeLength="1386.28" waitingTime="0.00" waitingCount="0" stopTime="0.00" timeLoss="8.33" rerouteNo="0" devices="tripinfo_L4-CV-29 emissions_L4-CV-29 ssm_L4-CV-29 toc_L4-CV-29 driverstateL4-CV-29" vType="L4-CV-57@L4-CV-29" speedFactor="0.90" vaporized="">
        <emissions CO_abs="1916.829231" CO2_abs="293060.122494" HC_abs="12.350823" PMx_abs="2.860478" NOx_abs="99.018014" fuel_abs="125.975377" electricity_abs="0"/>
    </tripinfo>
    <tripinfo id="L4-CV-25" depart="78.70" departLane="left-long-approaching_0" departPos="5.10" departSpeed="0.00" departDelay="3.70" arrival="195.00" arrivalLane="right-exit_0" arrivalPos="486.40" arrivalSpeed="19.66" duration="116.30" routeLength="1395.81" waitingTime="20.60" waitingCount="24" stopTime="0.00" timeLoss="43.75" rerouteNo="0" devices="tripinfo_L4-CV-25 emissions_L4-CV-25 ssm_L4-CV-25 toc_L4-CV-25 driverstateL4-CV-25" vType="L4-CV-42@L4-CV-25" speedFactor="1.18" vaporized="">
        <emissions CO_abs="5733.457837" CO2_abs="365549.084948" HC_abs="32.955278" PMx_abs="6.064798" NOx_abs="138.393267" fuel_abs="157.135160" electricity_abs="0"/>
    </tripinfo>
    <tripinfo id="L4-CV-33" depart="99.00" departLane="right-approaching_0" departPos="5.10" departSpeed="0.00" departDelay="0.00" arrival="195.00" arrivalLane="top-exit_0" arrivalPos="486.40" arrivalSpeed="17.30" duration="96.00" routeLength="979.43" waitingTime="26.00" waitingCount="1" stopTime="0.00" timeLoss="38.43" rerouteNo="0" devices="tripinfo_L4-CV-33 emissions_L4-CV-33 ssm_L4-CV-33 toc_L4-CV-33 driverstateL4-CV-33" vType="L4-CV-28" speedFactor="1.04" vaporized="">
        <emissions CO_abs="6843.912529" CO2_abs="312419.681214" HC_abs="35.781738" PMx_abs="5.133450" NOx_abs="120.095617" fuel_abs="134.298219" electricity_abs="0"/>
    </tripinfo>
    <tripinfo id="L4-CV-17" depart="51.40" departLane="left-long-approaching_0" departPos="5.10" departSpeed="0.00" departDelay="0.40" arrival="197.50" arrivalLane="bottom-exit_0" arrivalPos="489.60" arrivalSpeed="15.82" duration="146.10" routeLength="1383.54" waitingTime="45.20" waitingCount="1" stopTime="0.00" timeLoss="55.94" rerouteNo="0" devices="tripinfo_L4-CV-17 emissions_L4-CV-17 ssm_L4-CV-17 toc_L4-CV-17 driverstateL4-CV-17" vType="L4-CV-Right-28" speedFactor="0.95" vaporized="">
        <emissions CO_abs="9743.071150" CO2_abs="419224.247266" HC_abs="50.311872" PMx_abs="6.313566" NOx_abs="157.882764" fuel_abs="180.211035" electricity_abs="0"/>
    </tripinfo>
    <tripinfo id="L4-CV-21" depart="63.00" departLane="bottom-approaching_0" departPos="5.10" departSpeed="0.00" departDelay="0.00" arrival="197.70" arrivalLane="left-exit_0" arrivalPos="831.00" arrivalSpeed="16.76" duration="134.70" routeLength="1396.90" waitingTime="17.30" waitingCount="55" stopTime="0.00" timeLoss="48.68" rerouteNo="0" devices="tripinfo_L4-CV-21 emissions_L4-CV-21 ssm_L4-CV-21 toc_L4-CV-21 driverstateL4-CV-21" vType="L4-CV-38@L4-CV-21" speedFactor="1.01" vaporized="">
        <emissions CO_abs="6161.198245" CO2_abs="377382.406390" HC_abs="33.410227" PMx_abs="5.262044" NOx_abs="138.111178" fuel_abs="162.223107" electricity_abs="0"/>
    </tripinfo>
    <tripinfo id="L4-CV-42" depart="126.00" departLane="right-approaching_0" departPos="5.10" departSpeed="0.00" departDelay="0.00" arrival="198.60" arrivalLane="top-exit_0" arrivalPos="486.40" arrivalSpeed="17.06" duration="72.60" routeLength="979.43" waitingTime="0.00" waitingCount="0" stopTime="0.00" timeLoss="14.20" rerouteNo="0" devices="tripinfo_L4-CV-42 emissions_L4-CV-42 ssm_L4-CV-42 toc_L4-CV-42 driverstateL4-CV-42" vType="L4-CV-0" speedFactor="1.02" vaporized="">
        <emissions CO_abs="2445.325967" CO2_abs="246374.875955" HC_abs="15.000579" PMx_abs="3.276820" NOx_abs="89.069470" fuel_abs="105.906657" electricity_abs="0"/>
    </tripinfo>
    <tripinfo id="L4-AV-6" depart="72.00" departLane="left-long-approaching_0" departPos="5.10" departSpeed="0.00" departDelay="0.00" arrival="199.90" arrivalLane="bottom-exit_0" arrivalPos="489.60" arrivalSpeed="18.70" duration="127.90" routeLength="1383.54" waitingTime="0.00" waitingCount="0" stopTime="0.00" timeLoss="51.59" rerouteNo="0" devices="tripinfo_L4-AV-6 emissions_L4-AV-6 ssm_L4-AV-6 toc_L4-AV-6 driverstateL4-AV-6" vType="L4-AV-Right-39" speedFactor="1.12" vaporized="">
        <emissions CO_abs="3909.790028" CO2_abs="277216.454057" HC_abs="22.888439" PMx_abs="4.311515" NOx_abs="105.774886" fuel_abs="119.164219" electricity_abs="0"/>
    </tripinfo>
    <tripinfo id="L4-CV-12" depart="36.00" departLane="bottom-approaching_0" departPos="5.10" departSpeed="0.00" departDelay="0.00" arrival="201.00" arrivalLane="left-exit_0" arrivalPos="831.00" arrivalSpeed="13.76" duration="165.00" routeLength="1396.90" waitingTime="46.10" waitingCount="2" stopTime="0.00" timeLoss="60.33" rerouteNo="0" devices="tripinfo_L4-CV-12 emissions_L4-CV-12 ssm_L4-CV-12 toc_L4-CV-12 driverstateL4-CV-12" vType="L4-CV-2@L4-CV-12" speedFactor="0.83" vaporized="">
        <emissions CO_abs="9983.131550" CO2_abs="425467.411870" HC_abs="53.351108" PMx_abs="5.976516" NOx_abs="159.824560" fuel_abs="182.895638" electricity_abs="0"/>
    </tripinfo>
    <tripinfo id="L2-AV-1" depart="36.00" departLane="left-long-approaching_0" departPos="5.10" departSpeed="0.00" departDelay="0.00" arrival="201.30" arrivalLane="right-exit_1" arrivalPos="486.40" arrivalSpeed="16.95" duration="165.30" routeLength="1395.81" waitingTime="2.10" waitingCount="1" stopTime="0.00" timeLoss="81.09" rerouteNo="0" devices="tripinfo_L2-AV-1 emissions_L2-AV-1 ssm_L2-AV-1 toc_L2-AV-1 driverstateL2-AV-1" vType="L2-AV-30" speedFactor="1.02" vaporized="">
        <emissions CO_abs="2934.145754" CO2_abs="261612.910906" HC_abs="17.307834" PMx_abs="3.525054" NOx_abs="94.961832" fuel_abs="112.457055" electricity_abs="0"/>
    </tripinfo>
    <tripinfo id="L2-CV-4" depart="48.00" departLane="left-long-approaching_0" departPos="5.10" departSpeed="0.00" departDelay="0.00" arrival="202.80" arrivalLane="right-exit_1" arrivalPos="486.40" arrivalSpeed="19.04" duration="154.80" routeLength="1395.81" waitingTime="0.70" waitingCount="1" stopTime="0.00" timeLoss="81.95" rerouteNo="0" devices="tripinfo_L2-CV-4 emissions_L2-CV-4 ssm_L2-CV-4 toc_L2-CV-4 driverstateL2-CV-4" vType="L2-CV-30" speedFactor="1.18" vaporized="">
        <emissions CO_abs="3493.852841" CO2_abs="319597.245295" HC_abs="21.474373" PMx_abs="4.722495" NOx_abs="116.816778" fuel_abs="137.381836" electricity_abs="0"/>
    </tripinfo>
    <tripinfo id="L4-CV-16" depart="48.00" departLane="bottom-approaching_0" departPos="5.10" departSpeed="0.00" departDelay="0.00" arrival="202.90" arrivalLane="left-exit_0" arrivalPos="831.00" arrivalSpeed="14.55" duration="154.90" routeLength="1396.90" waitingTime="26.30" waitingCount="3" stopTime="0.00" timeLoss="56.07" rerouteNo="0" devices="tripinfo_L4-CV-16 emissions_L4-CV-16 ssm_L4-CV-16 toc_L4-CV-16 driverstateL4-CV-16" vType="L4-CV-6@L4-CV-16" speedFactor="0.87" vaporized="">
        <emissions CO_abs="5554.933884" CO2_abs="357548.485319" HC_abs="30.872045" PMx_abs="4.309357" NOx_abs="128.393402" fuel_abs="153.697942" electricity_abs="0"/>
    </tripinfo>
    <tripinfo id="L4-CV-7" depart="21.00" departLane="left-long-approaching_0" departPos="5.10" departSpeed="0.00" departDelay="0.00" arrival="203.20" arrivalLane="right-exit_0" arrivalPos="486.40" arrivalSpeed="14.64" duration="182.20" routeLength="1395.81" waitingTime="68.70" waitingCount="1" stopTime="0.00" timeLoss="84.68" rerouteNo="0" devices="tripinfo_L4-CV-7 emissions_L4-CV-7 ssm_L4-CV-7 toc_L4-CV-7 driverstateL4-CV-7" vType="L4-CV-22" speedFactor="0.88" vaporized="">
        <emissions CO_abs="14096.193563" CO2_abs="488042.942303" HC_abs="72.306233" PMx_abs="7.718831" NOx_abs="188.790625" fuel_abs="209.795739" electricity_abs="0"/>
    </tripinfo>
    <tripinfo id="L2-AV-2" depart="75.30" departLane="right-approaching_0" departPos="5.10" departSpeed="0.00" departDelay="3.30" arrival="203.40" arrivalLane="bottom-exit_1" arrivalPos="489.60" arrivalSpeed="20.44" duration="128.10" routeLength="992.90" waitingTime="56.90" waitingCount="3" stopTime="0.00" timeLoss="78.63" rerouteNo="0" devices="tripinfo_L2-AV-2 emissions_L2-AV-2 ssm_L2-AV-2 toc_L2-AV-2 driverstateL2-AV-2" vType="L2-AV-99" speedFactor="1.23" vaporized="">
        <emissions CO_abs="13120.767355" CO2_abs="420906.953251" HC_abs="68.717988" PMx_abs="8.507563" NOx_abs="173.917484" fuel_abs="180.934287" electricity_abs="0"/>
    </tripinfo>
    <tripinfo id="L4-AV-12" depart="144.00" departLane="right-approaching_0" departPos="5.10" departSpeed="0.00" departDelay="0.00" arrival="214.10" arrivalLane="bottom-exit_0" arrivalPos="489.60" arrivalSpeed="16.90" duration="70.10" routeLength="992.90" waitingTime="0.00" waitingCount="0" stopTime="0.00" timeLoss="10.33" rerouteNo="0" devices="tripinfo_L4-AV-12 emissions_L4-AV-12 ssm_L4-AV-12 toc_L4-AV-12 driverstateL4-AV-12" vType="L4-AV-24" speedFactor="1.01" vaporized="">
        <emissions CO_abs="2407.770949" CO2_abs="216640.195719" HC_abs="14.547679" PMx_abs="3.295125" NOx_abs="82.035239" fuel_abs="93.124416" electricity_abs="0"/>
    </tripinfo>
    <tripinfo id="L4-CV-51" depart="153.00" departLane="right-approaching_0" departPos="5.10" departSpeed="0.00" departDelay="0.00" arrival="218.60" arrivalLane="bottom-exit_0" arrivalPos="489.60" arrivalSpeed="17.60" duration="65.60" routeLength="992.90" waitingTime="0.00" waitingCount="0" stopTime="0.00" timeLoss="8.24" rerouteNo="0" devices="tripinfo_L4-CV-51 emissions_L4-CV-51 ssm_L4-CV-51 toc_L4-CV-51 driverstateL4-CV-51" vType="L4-CV-19" speedFactor="1.06" vaporized="">
        <emissions CO_abs="1973.456409" CO2_abs="240591.309110" HC_abs="12.516038" PMx_abs="3.279036" NOx_abs="86.381709" fuel_abs="103.420121" electricity_abs="0"/>
    </tripinfo>
    <tripinfo id="L4-CV-34" depart="102.10" departLane="right-approaching_0" departPos="5.10" departSpeed="0.00" departDelay="0.10" arrival="224.80" arrivalLane="left-exit_1" arrivalPos="831.00" arrivalSpeed="18.14" duration="122.70" routeLength="1399.16" waitingTime="22.30" waitingCount="26" stopTime="0.00" timeLoss="43.79" rerouteNo="0" devices="tripinfo_L4-CV-34 emissions_L4-CV-34 ssm_L4-CV-34 toc_L4-CV-34 driverstateL4-CV-34" vType="L4-CV-14@L4-CV-34" speedFactor="1.09" vaporized="">
        <emissions CO_abs="5339.089124" CO2_abs="368891.330203" HC_abs="29.853649" PMx_abs="5.347396" NOx_abs="134.683098" fuel_abs="158.572423" electricity_abs="0"/>
    </tripinfo>