<?xml version="1.0" ?><!-- generated on 03/07/21 22:24:00 by Eclipse SUMO duarouter Version 1.8.0
<configuration xmlns:xsi="http://www.w3.org/2001/XMLSchema-instance" xsi:noNamespaceSchemaLocation="http://sumo.dlr.de/xsd/duarouterConfiguration.xsd">

    <input>
        <net-file value="Roadworks/RoadworksIntersection.net.xml"/>
        <route-files value="trips.trips.xml"/>
    </input>

    <output>
        <output-file value="Roadworks/BaselineHDV/Route-Files/L0-HDV-Route.rou.xml"/>
        <alternatives-output value="Roadworks/BaselineHDV/Route-Files/L0-HDV-Route.rou.alt.xml"/>
    </output>

    <time>
        <begin value="0"/>
        <end value="3600"/>
    </time>

    <report>
        <no-warnings value="true"/>
        <ignore-errors value="true"/>
        <no-step-log value="true"/>
    </report>

</configuration>
--><routes xmlns:xsi="http://www.w3.org/2001/XMLSchema-instance" xsi:noNamespaceSchemaLocation="http://sumo.dlr.de/xsd/routes_file.xsd">
    <vehicle id="L0-HDV-0" type="L0-HDV" depart="0.00">
        <route edges="bottom-approaching top-exit"/>
    </vehicle>
    <vehicle id="L0-HDV-1" type="L0-HDV" depart="1.07">
        <route edges="bottom-approaching right-exit"/>
    </vehicle>
    <vehicle id="L0-HDV-2" type="L0-HDV" depart="2.14">
        <route edges="bottom-approaching closed-lane"/>
    </vehicle>
    <vehicle id="L0-HDV-3" type="L0-HDV" depart="3.21">
        <route edges="top-approaching bottom-exit"/>
    </vehicle>
    <vehicle id="L0-HDV-4" type="L0-HDV" depart="4.28">
        <route edges="right-approaching closed-lane remerging-lane left-exit"/>
    </vehicle>
    <vehicle id="L0-HDV-6" type="L0-HDV" depart="6.42">
        <route edges="bottom-approaching top-exit"/>
    </vehicle>
    <vehicle id="L0-HDV-8" type="L0-HDV" depart="8.56">
        <route edges="bottom-approaching closed-lane remerging-lane left-exit"/>
    </vehicle>
    <vehicle id="L0-HDV-9" type="L0-HDV-Left" depart="9.63">
        <route edges="left-long-approaching preparation"/>
    </vehicle>
    <vehicle id="L0-HDV-10" type="L0-HDV" depart="10.70">
        <route edges="left-long-approaching preparation left-short-approaching bottom-exit"/>
    </vehicle>
    <vehicle id="L0-HDV-11" type="L0-HDV-Left" depart="11.77">
        <route edges="left-long-approaching preparation"/>
    </vehicle>
    <vehicle id="L0-HDV-12" type="L0-HDV" depart="12.84">
        <route edges="bottom-approaching right-exit"/>
    </vehicle>
    <vehicle id="L0-HDV-13" type="L0-HDV-Straight" depart="13.91">
        <route edges="left-long-approaching preparation left-short-approaching right-exit"/>
    </vehicle>
    <vehicle id="L0-HDV-14" type="L0-HDV-Straight" depart="14.98">
        <route edges="left-long-approaching preparation left-short-approaching right-exit"/>
    </vehicle>
    <vehicle id="L0-HDV-15" type="L0-HDV-Straight" depart="16.05">
        <route edges="left-long-approaching preparation left-short-approaching right-exit"/>
    </vehicle>
    <vehicle id="L0-HDV-16" type="L0-HDV" depart="17.12">
        <route edges="top-approaching right-exit"/>
    </vehicle>
    <vehicle id="L0-HDV-18" type="L0-HDV" depart="19.26">
        <route edges="top-approaching closed-lane remerging-lane left-exit"/>
    </vehicle>
    <vehicle id="L0-HDV-19" type="L0-HDV" depart="20.33">
        <route edges="bottom-approaching top-exit"/>
    </vehicle>
    <vehicle id="L0-HDV-21" type="L0-HDV" depart="22.47">
        <route edges="top-approaching closed-lane remerging-lane left-exit"/>
    </vehicle>
    <vehicle id="L0-HDV-22" type="L0-HDV-Left" depart="23.54">
        <route edges="left-long-approaching preparation"/>
    </vehicle>
    <vehicle id="L0-HDV-23" type="L0-HDV" depart="24.61">
        <route edges="bottom-approaching top-exit"/>
    </vehicle>
    <vehicle id="L0-HDV-24" type="L0-HDV" depart="25.68">
        <route edges="bottom-approaching right-exit"/>
    </vehicle>
    <vehicle id="L0-HDV-25" type="L0-HDV" depart="26.75">
        <route edges="right-approaching top-exit"/>
    </vehicle>
    <vehicle id="L0-HDV-29" type="L0-HDV" depart="31.03">
        <route edges="bottom-approaching top-exit"/>
    </vehicle>
    <vehicle id="L0-HDV-32" type="L0-HDV" depart="34.24">
        <route edges="bottom-approaching closed-lane remerging-lane left-exit"/>
    </vehicle>
    <vehicle id="L0-HDV-34" type="L0-HDV-Left" depart="36.38">
        <route edges="left-long-approaching preparation"/>
    </vehicle>
    <vehicle id="L0-HDV-35" type="L0-HDV" depart="37.45">
        <route edges="top-approaching bottom-exit"/>
    </vehicle>
    <vehicle id="L0-HDV-36" type="L0-HDV" depart="38.52">
        <route edges="left-long-approaching preparation left-short-approaching bottom-exit"/>
    </vehicle>
    <vehicle id="L0-HDV-37" type="L0-HDV" depart="39.59">
        <route edges="right-approaching top-exit"/>
    </vehicle>
    <vehicle id="L0-HDV-38" type="L0-HDV" depart="40.66">
        <route edges="bottom-approaching top-exit"/>
    </vehicle>
    <vehicle id="L0-HDV-39" type="L0-HDV" depart="41.73">
        <route edges="left-long-approaching preparation left-short-approaching bottom-exit"/>
    </vehicle>
    <vehicle id="L0-HDV-40" type="L0-HDV" depart="42.80">
        <route edges="top-approaching closed-lane remerging-lane left-exit"/>
    </vehicle>
    <vehicle id="L0-HDV-41" type="L0-HDV" depart="43.87">
        <route edges="bottom-approaching closed-lane remerging-lane left-exit"/>
    </vehicle>
    <vehicle id="L0-HDV-42" type="L0-HDV" depart="44.94">
        <route edges="bottom-approaching closed-lane remerging-lane left-exit"/>
    </vehicle>
    <vehicle id="L0-HDV-44" type="L0-HDV" depart="47.08">
        <route edges="right-approaching closed-lane remerging-lane left-exit"/>
    </vehicle>
    <vehicle id="L0-HDV-46" type="L0-HDV" depart="49.22">
        <route edges="bottom-approaching right-exit"/>
    </vehicle>
    <vehicle id="L0-HDV-47" type="L0-HDV-Left" depart="50.29">
        <route edges="left-long-approaching preparation"/>
    </vehicle>
    <vehicle id="L0-HDV-49" type="L0-HDV" depart="52.43">
        <route edges="top-approaching bottom-exit"/>
    </vehicle>
    <vehicle id="L0-HDV-51" type="L0-HDV-Straight" depart="54.57">
        <route edges="left-long-approaching preparation left-short-approaching right-exit"/>
    </vehicle>
    <vehicle id="L0-HDV-52" type="L0-HDV" depart="55.64">
        <route edges="right-approaching closed-lane remerging-lane left-exit"/>
    </vehicle>
    <vehicle id="L0-HDV-53" type="L0-HDV" depart="56.71">
        <route edges="top-approaching bottom-exit"/>
    </vehicle>
    <vehicle id="L0-HDV-54" type="L0-HDV" depart="57.78">
        <route edges="top-approaching bottom-exit"/>
    </vehicle>
    <vehicle id="L0-HDV-55" type="L0-HDV" depart="58.85">
        <route edges="top-approaching bottom-exit"/>
    </vehicle>
    <vehicle id="L0-HDV-57" type="L0-HDV" depart="60.99">
        <route edges="top-approaching right-exit"/>
    </vehicle>
    <vehicle id="L0-HDV-58" type="L0-HDV" depart="62.06">
        <route edges="bottom-approaching top-exit"/>
    </vehicle>
    <vehicle id="L0-HDV-59" type="L0-HDV" depart="63.13">
        <route edges="left-long-approaching preparation left-short-approaching bottom-exit"/>
    </vehicle>
    <vehicle id="L0-HDV-61" type="L0-HDV" depart="65.27">
        <route edges="left-long-approaching preparation left-short-approaching bottom-exit"/>
    </vehicle>
    <vehicle id="L0-HDV-62" type="L0-HDV" depart="66.34">
        <route edges="bottom-approaching right-exit"/>
    </vehicle>
    <vehicle id="L0-HDV-63" type="L0-HDV" depart="67.41">
        <route edges="left-long-approaching preparation left-short-approaching bottom-exit"/>
    </vehicle>
    <vehicle id="L0-HDV-64" type="L0-HDV-Straight" depart="68.48">
        <route edges="left-long-approaching preparation left-short-approaching right-exit"/>
    </vehicle>
    <vehicle id="L0-HDV-65" type="L0-HDV" depart="69.55">
        <route edges="right-approaching closed-lane remerging-lane left-exit"/>
    </vehicle>
    <vehicle id="L0-HDV-68" type="L0-HDV" depart="72.76">
        <route edges="left-long-approaching preparation left-short-approaching bottom-exit"/>
    </vehicle>
    <vehicle id="L0-HDV-70" type="L0-HDV" depart="74.90">
        <route edges="right-approaching bottom-exit"/>
    </vehicle>
    <vehicle id="L0-HDV-72" type="L0-HDV" depart="77.04">
        <route edges="bottom-approaching top-exit"/>
    </vehicle>
    <vehicle id="L0-HDV-74" type="L0-HDV" depart="79.18">
        <route edges="right-approaching bottom-exit"/>
    </vehicle>
    <vehicle id="L0-HDV-75" type="L0-HDV" depart="80.25">
        <route edges="bottom-approaching right-exit"/>
    </vehicle>
    <vehicle id="L0-HDV-77" type="L0-HDV" depart="82.39">
        <route edges="bottom-approaching right-exit"/>
    </vehicle>
    <vehicle id="L0-HDV-78" type="L0-HDV" depart="83.46">
        <route edges="top-approaching right-exit"/>
    </vehicle>
    <vehicle id="L0-HDV-80" type="L0-HDV" depart="85.60">
        <route edges="bottom-approaching closed-lane remerging-lane left-exit"/>
    </vehicle>
    <vehicle id="L0-HDV-81" type="L0-HDV" depart="86.67">
        <route edges="right-approaching top-exit"/>
    </vehicle>
    <vehicle id="L0-HDV-82" type="L0-HDV-Left" depart="87.74">
        <route edges="left-long-approaching preparation"/>
    </vehicle>
    <vehicle id="L0-HDV-83" type="L0-HDV" depart="88.81">
        <route edges="top-approaching right-exit"/>
    </vehicle>
    <vehicle id="L0-HDV-84" type="L0-HDV" depart="89.88">
        <route edges="right-approaching top-exit"/>
    </vehicle>
    <vehicle id="L0-HDV-85" type="L0-HDV" depart="90.95">
        <route edges="top-approaching closed-lane remerging-lane left-exit"/>
    </vehicle>
    <vehicle id="L0-HDV-86" type="L0-HDV" depart="92.02">
        <route edges="top-approaching bottom-exit"/>
    </vehicle>
    <vehicle id="L0-HDV-87" type="L0-HDV-Left" depart="93.09">
        <route edges="left-long-approaching preparation"/>
    </vehicle>
    <vehicle id="L0-HDV-88" type="L0-HDV" depart="94.16">
        <route edges="top-approaching closed-lane remerging-lane left-exit"/>
    </vehicle>
    <vehicle id="L0-HDV-89" type="L0-HDV-Straight" depart="95.23">
        <route edges="left-long-approaching preparation left-short-approaching right-exit"/>
    </vehicle>
    <vehicle id="L0-HDV-90" type="L0-HDV" depart="96.30">
        <route edges="top-approaching right-exit"/>
    </vehicle>
    <vehicle id="L0-HDV-91" type="L0-HDV" depart="97.37">
        <route edges="top-approaching right-exit"/>
    </vehicle>
    <vehicle id="L0-HDV-92" type="L0-HDV" depart="98.44">
        <route edges="top-approaching right-exit"/>
    </vehicle>
    <vehicle id="L0-HDV-94" type="L0-HDV-Straight" depart="100.58">
        <route edges="left-long-approaching preparation left-short-approaching right-exit"/>
    </vehicle>
    <vehicle id="L0-HDV-95" type="L0-HDV" depart="101.65">
        <route edges="top-approaching closed-lane remerging-lane left-exit"/>
    </vehicle>
    <vehicle id="L0-HDV-96" type="L0-HDV" depart="102.72">
        <route edges="bottom-approaching right-exit"/>
    </vehicle>
    <vehicle id="L0-HDV-98" type="L0-HDV" depart="104.86">
        <route edges="bottom-approaching top-exit"/>
    </vehicle>
    <vehicle id="L0-HDV-101" type="L0-HDV-Left" depart="108.07">
        <route edges="left-long-approaching preparation"/>
    </vehicle>
    <vehicle id="L0-HDV-104" type="L0-HDV" depart="111.28">
        <route edges="right-approaching closed-lane remerging-lane left-exit"/>
    </vehicle>
    <vehicle id="L0-HDV-105" type="L0-HDV" depart="112.35">
        <route edges="top-approaching right-exit"/>
    </vehicle>
    <vehicle id="L0-HDV-106" type="L0-HDV" depart="113.42">
        <route edges="top-approaching closed-lane remerging-lane left-exit"/>
    </vehicle>
    <vehicle id="L0-HDV-108" type="L0-HDV-Straight" depart="115.56">
        <route edges="left-long-approaching preparation left-short-approaching right-exit"/>
    </vehicle>
    <vehicle id="L0-HDV-111" type="L0-HDV" depart="118.77">
        <route edges="bottom-approaching right-exit"/>
    </vehicle>
    <vehicle id="L0-HDV-112" type="L0-HDV" depart="119.84">
        <route edges="right-approaching bottom-exit"/>
    </vehicle>
    <vehicle id="L0-HDV-113" type="L0-HDV-Left" depart="120.91">
        <route edges="left-long-approaching preparation"/>
    </vehicle>
    <vehicle id="L0-HDV-115" type="L0-HDV" depart="123.05">
        <route edges="bottom-approaching right-exit"/>
    </vehicle>
    <vehicle id="L0-HDV-116" type="L0-HDV" depart="124.12">
        <route edges="top-approaching right-exit"/>
    </vehicle>
    <vehicle id="L0-HDV-117" type="L0-HDV" depart="125.19">
        <route edges="left-long-approaching preparation left-short-approaching bottom-exit"/>
    </vehicle>
    <vehicle id="L0-HDV-119" type="L0-HDV" depart="127.33">
        <route edges="right-approaching closed-lane remerging-lane left-exit"/>
    </vehicle>
    <vehicle id="L0-HDV-124" type="L0-HDV" depart="132.68">
        <route edges="right-approaching bottom-exit"/>
    </vehicle>
    <vehicle id="L0-HDV-125" type="L0-HDV" depart="133.75">
        <route edges="right-approaching closed-lane remerging-lane left-exit"/>
    </vehicle>
    <vehicle id="L0-HDV-126" type="L0-HDV" depart="134.82">
        <route edges="bottom-approaching closed-lane remerging-lane left-exit"/>
    </vehicle>
    <vehicle id="L0-HDV-128" type="L0-HDV" depart="136.96">
        <route edges="top-approaching bottom-exit"/>
    </vehicle>
    <vehicle id="L0-HDV-129" type="L0-HDV" depart="138.03">
        <route edges="bottom-approaching closed-lane remerging-lane left-exit"/>
    </vehicle>
    <vehicle id="L0-HDV-130" type="L0-HDV" depart="139.10">
        <route edges="bottom-approaching right-exit"/>
    </vehicle>
    <vehicle id="L0-HDV-133" type="L0-HDV" depart="142.31">
        <route edges="top-approaching right-exit"/>
    </vehicle>
    <vehicle id="L0-HDV-134" type="L0-HDV-Left" depart="143.38">
        <route edges="left-long-approaching preparation"/>
    </vehicle>
    <vehicle id="L0-HDV-135" type="L0-HDV" depart="144.45">
        <route edges="right-approaching closed-lane remerging-lane left-exit"/>
    </vehicle>
    <vehicle id="L0-HDV-136" type="L0-HDV" depart="145.52">
        <route edges="right-approaching top-exit"/>
    </vehicle>
    <vehicle id="L0-HDV-138" type="L0-HDV" depart="147.66">
        <route edges="bottom-approaching closed-lane remerging-lane left-exit"/>
    </vehicle>
    <vehicle id="L0-HDV-139" type="L0-HDV" depart="148.73">
        <route edges="left-long-approaching preparation left-short-approaching bottom-exit"/>
    </vehicle>
    <vehicle id="L0-HDV-140" type="L0-HDV" depart="149.80">
        <route edges="top-approaching bottom-exit"/>
    </vehicle>
    <vehicle id="L0-HDV-141" type="L0-HDV" depart="150.87">
        <route edges="top-approaching right-exit"/>
    </vehicle>
    <vehicle id="L0-HDV-142" type="L0-HDV" depart="151.94">
        <route edges="right-approaching closed-lane remerging-lane left-exit"/>
    </vehicle>
    <vehicle id="L0-HDV-143" type="L0-HDV" depart="153.01">
        <route edges="top-approaching right-exit"/>
    </vehicle>
    <vehicle id="L0-HDV-145" type="L0-HDV" depart="155.15">
        <route edges="right-approaching top-exit"/>
    </vehicle>
    <vehicle id="L0-HDV-147" type="L0-HDV" depart="157.29">
        <route edges="top-approaching right-exit"/>
    </vehicle>
    <vehicle id="L0-HDV-148" type="L0-HDV-Straight" depart="158.36">
        <route edges="left-long-approaching preparation left-short-approaching right-exit"/>
    </vehicle>
    <vehicle id="L0-HDV-149" type="L0-HDV" depart="159.43">
        <route edges="left-long-approaching preparation left-short-approaching bottom-exit"/>
    </vehicle>
    <vehicle id="L0-HDV-151" type="L0-HDV" depart="161.57">
        <route edges="top-approaching right-exit"/>
    </vehicle>
    <vehicle id="L0-HDV-152" type="L0-HDV" depart="162.64">
        <route edges="top-approaching closed-lane remerging-lane left-exit"/>
    </vehicle>
    <vehicle id="L0-HDV-153" type="L0-HDV" depart="163.71">
        <route edges="bottom-approaching right-exit"/>
    </vehicle>
    <vehicle id="L0-HDV-155" type="L0-HDV" depart="165.85">
        <route edges="right-approaching bottom-exit"/>
    </vehicle>
    <vehicle id="L0-HDV-156" type="L0-HDV" depart="166.92">
        <route edges="left-long-approaching preparation left-short-approaching bottom-exit"/>
    </vehicle>
    <vehicle id="L0-HDV-157" type="L0-HDV-Left" depart="167.99">
        <route edges="left-long-approaching preparation"/>
    </vehicle>
    <vehicle id="L0-HDV-158" type="L0-HDV-Straight" depart="169.06">
        <route edges="left-long-approaching preparation left-short-approaching right-exit"/>
    </vehicle>
    <vehicle id="L0-HDV-159" type="L0-HDV" depart="170.13">
        <route edges="right-approaching bottom-exit"/>
    </vehicle>
    <vehicle id="L0-HDV-160" type="L0-HDV" depart="171.20">
        <route edges="right-approaching bottom-exit"/>
    </vehicle>
    <vehicle id="L0-HDV-161" type="L0-HDV" depart="172.27">
        <route edges="bottom-approaching right-exit"/>
    </vehicle>
    <vehicle id="L0-HDV-162" type="L0-HDV" depart="173.34">
        <route edges="bottom-approaching top-exit"/>
    </vehicle>
    <vehicle id="L0-HDV-163" type="L0-HDV-Straight" depart="174.41">
        <route edges="left-long-approaching preparation left-short-approaching right-exit"/>
    </vehicle>
    <vehicle id="L0-HDV-164" type="L0-HDV" depart="175.48">
        <route edges="top-approaching bottom-exit"/>
    </vehicle>
    <vehicle id="L0-HDV-165" type="L0-HDV" depart="176.55">
        <route edges="top-approaching bottom-exit"/>
    </vehicle>
    <vehicle id="L0-HDV-167" type="L0-HDV" depart="178.69">
        <route edges="top-approaching closed-lane remerging-lane left-exit"/>
    </vehicle>
    <vehicle id="L0-HDV-168" type="L0-HDV" depart="179.76">
        <route edges="top-approaching right-exit"/>
    </vehicle>
    <vehicle id="L0-HDV-169" type="L0-HDV" depart="180.83">
        <route edges="left-long-approaching preparation left-short-approaching bottom-exit"/>
    </vehicle>
    <vehicle id="L0-HDV-170" type="L0-HDV" depart="181.90">
        <route edges="bottom-approaching closed-lane remerging-lane left-exit"/>
    </vehicle>
    <vehicle id="L0-HDV-172" type="L0-HDV" depart="184.04">
        <route edges="top-approaching closed-lane remerging-lane left-exit"/>
    </vehicle>
    <vehicle id="L0-HDV-173" type="L0-HDV" depart="185.11">
        <route edges="right-approaching bottom-exit"/>
    </vehicle>
    <vehicle id="L0-HDV-174" type="L0-HDV" depart="186.18">
        <route edges="bottom-approaching right-exit"/>
    </vehicle>
    <vehicle id="L0-HDV-175" type="L0-HDV" depart="187.25">
        <route edges="top-approaching closed-lane remerging-lane left-exit"/>
    </vehicle>
    <vehicle id="L0-HDV-178" type="L0-HDV" depart="190.46">
        <route edges="right-approaching closed-lane remerging-lane left-exit"/>
    </vehicle>
    <vehicle id="L0-HDV-179" type="L0-HDV" depart="191.53">
        <route edges="right-approaching top-exit"/>
    </vehicle>
    <vehicle id="L0-HDV-180" type="L0-HDV" depart="192.60">
        <route edges="top-approaching right-exit"/>
    </vehicle>
    <vehicle id="L0-HDV-181" type="L0-HDV" depart="193.67">
        <route edges="right-approaching closed-lane remerging-lane left-exit"/>
    </vehicle>
    <vehicle id="L0-HDV-182" type="L0-HDV" depart="194.74">
        <route edges="top-approaching closed-lane remerging-lane left-exit"/>
    </vehicle>
    <vehicle id="L0-HDV-183" type="L0-HDV" depart="195.81">
        <route edges="top-approaching closed-lane remerging-lane left-exit"/>
    </vehicle>
    <vehicle id="L0-HDV-185" type="L0-HDV" depart="197.95">
        <route edges="right-approaching closed-lane remerging-lane left-exit"/>
    </vehicle>
    <vehicle id="L0-HDV-187" type="L0-HDV-Straight" depart="200.09">
        <route edges="left-long-approaching preparation left-short-approaching right-exit"/>
    </vehicle>
    <vehicle id="L0-HDV-189" type="L0-HDV-Straight" depart="202.23">
        <route edges="left-long-approaching preparation left-short-approaching right-exit"/>
    </vehicle>
    <vehicle id="L0-HDV-190" type="L0-HDV" depart="203.30">
        <route edges="right-approaching bottom-exit"/>
    </vehicle>
    <vehicle id="L0-HDV-191" type="L0-HDV" depart="204.37">
        <route edges="bottom-approaching top-exit"/>
    </vehicle>
    <vehicle id="L0-HDV-192" type="L0-HDV" depart="205.44">
        <route edges="bottom-approaching top-exit"/>
    </vehicle>
    <vehicle id="L0-HDV-193" type="L0-HDV" depart="206.51">
        <route edges="top-approaching bottom-exit"/>
    </vehicle>
    <vehicle id="L0-HDV-194" type="L0-HDV" depart="207.58">
        <route edges="right-approaching closed-lane remerging-lane left-exit"/>
    </vehicle>
    <vehicle id="L0-HDV-195" type="L0-HDV" depart="208.65">
        <route edges="top-approaching bottom-exit"/>
    </vehicle>
    <vehicle id="L0-HDV-197" type="L0-HDV" depart="210.79">
        <route edges="right-approaching bottom-exit"/>
    </vehicle>
    <vehicle id="L0-HDV-198" type="L0-HDV-Left" depart="211.86">
        <route edges="left-long-approaching preparation"/>
    </vehicle>
    <vehicle id="L0-HDV-201" type="L0-HDV" depart="215.07">
        <route edges="bottom-approaching top-exit"/>
    </vehicle>
    <vehicle id="L0-HDV-202" type="L0-HDV-Left" depart="216.14">
        <route edges="left-long-approaching preparation"/>
    </vehicle>
    <vehicle id="L0-HDV-203" type="L0-HDV-Left" depart="217.21">
        <route edges="left-long-approaching preparation"/>
    </vehicle>
    <vehicle id="L0-HDV-204" type="L0-HDV" depart="218.28">
        <route edges="bottom-approaching top-exit"/>
    </vehicle>
    <vehicle id="L0-HDV-205" type="L0-HDV" depart="219.35">
        <route edges="bottom-approaching right-exit"/>
    </vehicle>
    <vehicle id="L0-HDV-206" type="L0-HDV-Left" depart="220.42">
        <route edges="left-long-approaching preparation"/>
    </vehicle>
    <vehicle id="L0-HDV-207" type="L0-HDV" depart="221.49">
        <route edges="right-approaching top-exit"/>
    </vehicle>
    <vehicle id="L0-HDV-208" type="L0-HDV" depart="222.56">
        <route edges="top-approaching closed-lane remerging-lane left-exit"/>
    </vehicle>
    <vehicle id="L0-HDV-210" type="L0-HDV" depart="224.70">
        <route edges="right-approaching top-exit"/>
    </vehicle>
    <vehicle id="L0-HDV-211" type="L0-HDV" depart="225.77">
        <route edges="right-approaching closed-lane remerging-lane left-exit"/>
    </vehicle>
    <vehicle id="L0-HDV-213" type="L0-HDV-Straight" depart="227.91">
        <route edges="left-long-approaching preparation left-short-approaching right-exit"/>
    </vehicle>
    <vehicle id="L0-HDV-215" type="L0-HDV" depart="230.05">
        <route edges="bottom-approaching closed-lane remerging-lane left-exit"/>
    </vehicle>
    <vehicle id="L0-HDV-216" type="L0-HDV" depart="231.12">
        <route edges="right-approaching bottom-exit"/>
    </vehicle>
    <vehicle id="L0-HDV-217" type="L0-HDV-Straight" depart="232.19">
        <route edges="left-long-approaching preparation left-short-approaching right-exit"/>
    </vehicle>
    <vehicle id="L0-HDV-218" type="L0-HDV-Straight" depart="233.26">
        <route edges="left-long-approaching preparation left-short-approaching right-exit"/>
    </vehicle>
    <vehicle id="L0-HDV-219" type="L0-HDV" depart="234.33">
        <route edges="right-approaching closed-lane remerging-lane left-exit"/>
    </vehicle>
    <vehicle id="L0-HDV-220" type="L0-HDV" depart="235.40">
        <route edges="bottom-approaching right-exit"/>
    </vehicle>
    <vehicle id="L0-HDV-221" type="L0-HDV" depart="236.47">
        <route edges="right-approaching bottom-exit"/>
    </vehicle>
    <vehicle id="L0-HDV-222" type="L0-HDV" depart="237.54">
        <route edges="top-approaching right-exit"/>
    </vehicle>
    <vehicle id="L0-HDV-224" type="L0-HDV-Straight" depart="239.68">
        <route edges="left-long-approaching preparation left-short-approaching right-exit"/>
    </vehicle>
    <vehicle id="L0-HDV-225" type="L0-HDV-Straight" depart="240.75">
        <route edges="left-long-approaching preparation left-short-approaching right-exit"/>
    </vehicle>
    <vehicle id="L0-HDV-226" type="L0-HDV" depart="241.82">
        <route edges="bottom-approaching closed-lane remerging-lane left-exit"/>
    </vehicle>
    <vehicle id="L0-HDV-227" type="L0-HDV" depart="242.89">
        <route edges="right-approaching top-exit"/>
    </vehicle>
    <vehicle id="L0-HDV-228" type="L0-HDV" depart="243.96">
        <route edges="right-approaching top-exit"/>
    </vehicle>
    <vehicle id="L0-HDV-231" type="L0-HDV" depart="247.17">
        <route edges="left-long-approaching preparation left-short-approaching bottom-exit"/>
    </vehicle>
    <vehicle id="L0-HDV-232" type="L0-HDV" depart="248.24">
        <route edges="top-approaching right-exit"/>
    </vehicle>
    <vehicle id="L0-HDV-234" type="L0-HDV" depart="250.38">
        <route edges="bottom-approaching right-exit"/>
    </vehicle>
    <vehicle id="L0-HDV-235" type="L0-HDV" depart="251.45">
        <route edges="right-approaching bottom-exit"/>
    </vehicle>
    <vehicle id="L0-HDV-238" type="L0-HDV" depart="254.66">
        <route edges="top-approaching bottom-exit"/>
    </vehicle>
    <vehicle id="L0-HDV-239" type="L0-HDV" depart="255.73">
        <route edges="bottom-approaching right-exit"/>
    </vehicle>
    <vehicle id="L0-HDV-241" type="L0-HDV-Left" depart="257.87">
        <route edges="left-long-approaching preparation"/>
    </vehicle>
    <vehicle id="L0-HDV-242" type="L0-HDV" depart="258.94">
        <route edges="bottom-approaching closed-lane remerging-lane left-exit"/>
    </vehicle>
    <vehicle id="L0-HDV-243" type="L0-HDV" depart="260.01">
        <route edges="top-approaching right-exit"/>
    </vehicle>
    <vehicle id="L0-HDV-244" type="L0-HDV-Straight" depart="261.08">
        <route edges="left-long-approaching preparation left-short-approaching right-exit"/>
    </vehicle>
    <vehicle id="L0-HDV-245" type="L0-HDV-Straight" depart="262.15">
        <route edges="left-long-approaching preparation left-short-approaching right-exit"/>
    </vehicle>
    <vehicle id="L0-HDV-247" type="L0-HDV" depart="264.29">
        <route edges="bottom-approaching top-exit"/>
    </vehicle>
    <vehicle id="L0-HDV-248" type="L0-HDV" depart="265.36">
        <route edges="top-approaching right-exit"/>
    </vehicle>
    <vehicle id="L0-HDV-250" type="L0-HDV-Straight" depart="267.50">
        <route edges="left-long-approaching preparation left-short-approaching right-exit"/>
    </vehicle>
    <vehicle id="L0-HDV-251" type="L0-HDV" depart="268.57">
        <route edges="right-approaching bottom-exit"/>
    </vehicle>
    <vehicle id="L0-HDV-252" type="L0-HDV" depart="269.64">
        <route edges="top-approaching closed-lane remerging-lane left-exit"/>
    </vehicle>
    <vehicle id="L0-HDV-253" type="L0-HDV" depart="270.71">
        <route edges="right-approaching bottom-exit"/>
    </vehicle>
    <vehicle id="L0-HDV-254" type="L0-HDV" depart="271.78">
        <route edges="right-approaching bottom-exit"/>
    </vehicle>
    <vehicle id="L0-HDV-257" type="L0-HDV" depart="274.99">
        <route edges="bottom-approaching closed-lane remerging-lane left-exit"/>
    </vehicle>
    <vehicle id="L0-HDV-258" type="L0-HDV" depart="276.06">
        <route edges="top-approaching right-exit"/>
    </vehicle>
    <vehicle id="L0-HDV-264" type="L0-HDV" depart="282.48">
        <route edges="right-approaching closed-lane remerging-lane left-exit"/>
    </vehicle>
    <vehicle id="L0-HDV-266" type="L0-HDV" depart="284.62">
        <route edges="top-approaching bottom-exit"/>
    </vehicle>
    <vehicle id="L0-HDV-267" type="L0-HDV" depart="285.69">
        <route edges="bottom-approaching top-exit"/>
    </vehicle>
    <vehicle id="L0-HDV-269" type="L0-HDV" depart="287.83">
        <route edges="top-approaching right-exit"/>
    </vehicle>
    <vehicle id="L0-HDV-270" type="L0-HDV" depart="288.90">
        <route edges="right-approaching top-exit"/>
    </vehicle>
    <vehicle id="L0-HDV-271" type="L0-HDV" depart="289.97">
        <route edges="right-approaching closed-lane remerging-lane left-exit"/>
    </vehicle>
    <vehicle id="L0-HDV-274" type="L0-HDV-Straight" depart="293.18">
        <route edges="left-long-approaching preparation left-short-approaching right-exit"/>
    </vehicle>
    <vehicle id="L0-HDV-276" type="L0-HDV-Left" depart="295.32">
        <route edges="left-long-approaching preparation"/>
    </vehicle>
    <vehicle id="L0-HDV-278" type="L0-HDV" depart="297.46">
        <route edges="right-approaching closed-lane remerging-lane left-exit"/>
    </vehicle>
    <vehicle id="L0-HDV-279" type="L0-HDV" depart="298.53">
        <route edges="right-approaching bottom-exit"/>
    </vehicle>
    <vehicle id="L0-HDV-281" type="L0-HDV" depart="300.67">
        <route edges="right-approaching closed-lane remerging-lane left-exit"/>
    </vehicle>
    <vehicle id="L0-HDV-284" type="L0-HDV-Straight" depart="303.88">
        <route edges="left-long-approaching preparation left-short-approaching right-exit"/>
    </vehicle>
    <vehicle id="L0-HDV-285" type="L0-HDV" depart="304.95">
        <route edges="right-approaching closed-lane remerging-lane left-exit"/>
    </vehicle>
    <vehicle id="L0-HDV-286" type="L0-HDV" depart="306.02">
        <route edges="top-approaching bottom-exit"/>
    </vehicle>