<?xml version="1.0" ?><!-- generated on 03/15/21 20:40:59 by Eclipse SUMO duarouter Version 1.8.0
<configuration xmlns:xsi="http://www.w3.org/2001/XMLSchema-instance" xsi:noNamespaceSchemaLocation="http://sumo.dlr.de/xsd/duarouterConfiguration.xsd">

    <input>
        <net-file value="Roadworks/RoadworksIntersection.net.xml"/>
        <route-files value="trips.trips.xml"/>
    </input>

    <output>
        <output-file value="Roadworks/BaselineHDV/Route-Files/L0-HDV-Route.rou.xml"/>
        <alternatives-output value="Roadworks/BaselineHDV/Route-Files/L0-HDV-Route.rou.alt.xml"/>
    </output>

    <time>
        <begin value="0"/>
        <end value="3600"/>
    </time>

    <report>
        <no-warnings value="true"/>
        <ignore-errors value="true"/>
        <no-step-log value="true"/>
    </report>

</configuration>
--><routes xmlns:xsi="http://www.w3.org/2001/XMLSchema-instance" xsi:noNamespaceSchemaLocation="http://sumo.dlr.de/xsd/routes_file.xsd">
    <vehicle id="L0-HDV-0" type="L0-HDV" depart="0.00">
        <route edges="bottom-approaching top-exit"/>
    </vehicle>
    <vehicle id="L0-HDV-1" type="L0-HDV" depart="1.25">
        <route edges="top-approaching closed-lane remerging-lane left-exit"/>
    </vehicle>
    <vehicle id="L0-HDV-3" type="L0-HDV" depart="3.75">
        <route edges="right-approaching top-exit"/>
    </vehicle>
    <vehicle id="L0-HDV-5" type="L0-HDV" depart="6.25">
        <route edges="top-approaching closed-lane remerging-lane left-exit"/>
    </vehicle>
    <vehicle id="L0-HDV-6" type="L0-HDV" depart="7.50">
        <route edges="top-approaching bottom-exit"/>
    </vehicle>
    <vehicle id="L0-HDV-7" type="L0-HDV-Straight-" depart="8.75">
        <route edges="left-long-approaching preparation left-short-approaching right-exit"/>
    </vehicle>
    <vehicle id="L0-HDV-8" type="L0-HDV" depart="10.00">
        <route edges="bottom-approaching top-exit"/>
    </vehicle>
    <vehicle id="L0-HDV-9" type="L0-HDV" depart="11.25">
        <route edges="top-approaching bottom-exit"/>
    </vehicle>
    <vehicle id="L0-HDV-10" type="L0-HDV" depart="12.50">
        <route edges="bottom-approaching right-exit"/>
    </vehicle>
    <vehicle id="L0-HDV-11" type="L0-HDV" depart="13.75">
        <route edges="top-approaching closed-lane remerging-lane left-exit"/>
    </vehicle>
    <vehicle id="L0-HDV-12" type="L0-HDV" depart="15.00">
        <route edges="bottom-approaching closed-lane remerging-lane left-exit"/>
    </vehicle>
    <vehicle id="L0-HDV-16" type="L0-HDV" depart="20.00">
        <route edges="bottom-approaching closed-lane remerging-lane left-exit"/>
    </vehicle>
    <vehicle id="L0-HDV-17" type="L0-HDV" depart="21.25">
        <route edges="left-long-approaching preparation left-short-approaching bottom-exit"/>
    </vehicle>
    <vehicle id="L0-HDV-18" type="L0-HDV" depart="22.50">
        <route edges="top-approaching right-exit"/>
    </vehicle>
    <vehicle id="L0-HDV-19" type="L0-HDV" depart="23.75">
        <route edges="right-approaching bottom-exit"/>
    </vehicle>
    <vehicle id="L0-HDV-21" type="L0-HDV" depart="26.25">
        <route edges="bottom-approaching closed-lane remerging-lane left-exit"/>
    </vehicle>
    <vehicle id="L0-HDV-23" type="L0-HDV" depart="28.75">
        <route edges="top-approaching closed-lane remerging-lane left-exit"/>
    </vehicle>
    <vehicle id="L0-HDV-24" type="L0-HDV" depart="30.00">
        <route edges="top-approaching right-exit"/>
    </vehicle>
    <vehicle id="L0-HDV-25" type="L0-HDV-Straight-" depart="31.25">
        <route edges="left-long-approaching preparation left-short-approaching right-exit"/>
    </vehicle>
    <vehicle id="L0-HDV-29" type="L0-HDV" depart="36.25">
        <route edges="top-approaching closed-lane remerging-lane left-exit"/>
    </vehicle>
    <vehicle id="L0-HDV-30" type="L0-HDV" depart="37.50">
        <route edges="bottom-approaching right-exit"/>
    </vehicle>
    <vehicle id="L0-HDV-33" type="L0-HDV" depart="41.25">
        <route edges="right-approaching top-exit"/>
    </vehicle>
    <vehicle id="L0-HDV-34" type="L0-HDV" depart="42.50">
        <route edges="right-approaching closed-lane remerging-lane left-exit"/>
    </vehicle>
    <vehicle id="L0-HDV-35" type="L0-HDV" depart="43.75">
        <route edges="left-long-approaching preparation left-short-approaching bottom-exit"/>
    </vehicle>
    <vehicle id="L0-HDV-36" type="L0-HDV" depart="45.00">
        <route edges="bottom-approaching right-exit"/>
    </vehicle>
    <vehicle id="L0-HDV-37" type="L0-HDV" depart="46.25">
        <route edges="top-approaching right-exit"/>
    </vehicle>
    <vehicle id="L0-HDV-38" type="L0-HDV" depart="47.50">
        <route edges="left-long-approaching preparation left-short-approaching bottom-exit"/>
    </vehicle>
    <vehicle id="L0-HDV-39" type="L0-HDV-Left-" depart="48.75">
        <route edges="left-long-approaching preparation"/>
    </vehicle>
    <vehicle id="L0-HDV-40" type="L0-HDV" depart="50.00">
        <route edges="top-approaching right-exit"/>
    </vehicle>
    <vehicle id="L0-HDV-41" type="L0-HDV" depart="51.25">
        <route edges="top-approaching bottom-exit"/>
    </vehicle>
    <vehicle id="L0-HDV-42" type="L0-HDV" depart="52.50">
        <route edges="right-approaching top-exit"/>
    </vehicle>
    <vehicle id="L0-HDV-43" type="L0-HDV" depart="53.75">
        <route edges="right-approaching closed-lane remerging-lane left-exit"/>
    </vehicle>
    <vehicle id="L0-HDV-44" type="L0-HDV-Straight-" depart="55.00">
        <route edges="left-long-approaching preparation left-short-approaching right-exit"/>
    </vehicle>
    <vehicle id="L0-HDV-45" type="L0-HDV" depart="56.25">
        <route edges="top-approaching bottom-exit"/>
    </vehicle>
    <vehicle id="L0-HDV-47" type="L0-HDV" depart="58.75">
        <route edges="top-approaching right-exit"/>
    </vehicle>
    <vehicle id="L0-HDV-48" type="L0-HDV" depart="60.00">
        <route edges="top-approaching right-exit"/>
    </vehicle>
    <vehicle id="L0-HDV-49" type="L0-HDV" depart="61.25">
        <route edges="right-approaching closed-lane remerging-lane left-exit"/>
    </vehicle>
    <vehicle id="L0-HDV-50" type="L0-HDV" depart="62.50">
        <route edges="bottom-approaching top-exit"/>
    </vehicle>
    <vehicle id="L0-HDV-51" type="L0-HDV" depart="63.75">
        <route edges="right-approaching bottom-exit"/>
    </vehicle>
    <vehicle id="L0-HDV-52" type="L0-HDV" depart="65.00">
        <route edges="right-approaching closed-lane remerging-lane left-exit"/>
    </vehicle>
    <vehicle id="L0-HDV-55" type="L0-HDV" depart="68.75">
        <route edges="right-approaching closed-lane remerging-lane left-exit"/>
    </vehicle>
    <vehicle id="L0-HDV-57" type="L0-HDV" depart="71.25">
        <route edges="bottom-approaching right-exit"/>
    </vehicle>
    <vehicle id="L0-HDV-60" type="L0-HDV-Left-" depart="75.00">
        <route edges="left-long-approaching preparation"/>
    </vehicle>
    <vehicle id="L0-HDV-61" type="L0-HDV" depart="76.25">
        <route edges="right-approaching bottom-exit"/>
    </vehicle>
    <vehicle id="L0-HDV-63" type="L0-HDV" depart="78.75">
        <route edges="top-approaching closed-lane remerging-lane left-exit"/>
    </vehicle>
    <vehicle id="L0-HDV-64" type="L0-HDV" depart="80.00">
        <route edges="bottom-approaching right-exit"/>
    </vehicle>
    <vehicle id="L0-HDV-65" type="L0-HDV" depart="81.25">
        <route edges="left-long-approaching preparation left-short-approaching bottom-exit"/>
    </vehicle>
    <vehicle id="L0-HDV-66" type="L0-HDV" depart="82.50">
        <route edges="bottom-approaching right-exit"/>
    </vehicle>
    <vehicle id="L0-HDV-67" type="L0-HDV" depart="83.75">
        <route edges="bottom-approaching closed-lane remerging-lane left-exit"/>
    </vehicle>
    <vehicle id="L0-HDV-68" type="L0-HDV" depart="85.00">
        <route edges="right-approaching closed-lane remerging-lane left-exit"/>
    </vehicle>
    <vehicle id="L0-HDV-70" type="L0-HDV" depart="87.50">
        <route edges="bottom-approaching closed-lane remerging-lane left-exit"/>
    </vehicle>
    <vehicle id="L0-HDV-71" type="L0-HDV" depart="88.75">
        <route edges="left-long-approaching preparation left-short-approaching bottom-exit"/>
    </vehicle>
    <vehicle id="L0-HDV-72" type="L0-HDV" depart="90.00">
        <route edges="bottom-approaching top-exit"/>
    </vehicle>
    <vehicle id="L0-HDV-73" type="L0-HDV" depart="91.25">
        <route edges="right-approaching bottom-exit"/>
    </vehicle>
    <vehicle id="L0-HDV-74" type="L0-HDV" depart="92.50">
        <route edges="right-approaching top-exit"/>
    </vehicle>
    <vehicle id="L0-HDV-76" type="L0-HDV" depart="95.00">
        <route edges="bottom-approaching right-exit"/>
    </vehicle>
    <vehicle id="L0-HDV-77" type="L0-HDV" depart="96.25">
        <route edges="bottom-approaching right-exit"/>
    </vehicle>
    <vehicle id="L0-HDV-79" type="L0-HDV" depart="98.75">
        <route edges="bottom-approaching top-exit"/>
    </vehicle>
    <vehicle id="L0-HDV-80" type="L0-HDV" depart="100.00">
        <route edges="top-approaching right-exit"/>
    </vehicle>
    <vehicle id="L0-HDV-81" type="L0-HDV" depart="101.25">
        <route edges="bottom-approaching right-exit"/>
    </vehicle>
    <vehicle id="L0-HDV-82" type="L0-HDV-Straight-" depart="102.50">
        <route edges="left-long-approaching preparation left-short-approaching right-exit"/>
    </vehicle>
    <vehicle id="L0-HDV-83" type="L0-HDV-Straight-" depart="103.75">
        <route edges="left-long-approaching preparation left-short-approaching right-exit"/>
    </vehicle>
    <vehicle id="L0-HDV-84" type="L0-HDV" depart="105.00">
        <route edges="bottom-approaching closed-lane remerging-lane left-exit"/>
    </vehicle>
    <vehicle id="L0-HDV-86" type="L0-HDV-Left-" depart="107.50">
        <route edges="left-long-approaching preparation"/>
    </vehicle>
    <vehicle id="L0-HDV-87" type="L0-HDV-Left-" depart="108.75">
        <route edges="left-long-approaching preparation"/>
    </vehicle>
    <vehicle id="L0-HDV-88" type="L0-HDV" depart="110.00">
        <route edges="right-approaching closed-lane remerging-lane left-exit"/>
    </vehicle>
    <vehicle id="L0-HDV-89" type="L0-HDV" depart="111.25">
        <route edges="left-long-approaching preparation left-short-approaching bottom-exit"/>
    </vehicle>
    <vehicle id="L0-HDV-90" type="L0-HDV" depart="112.50">
        <route edges="top-approaching bottom-exit"/>
    </vehicle>
    <vehicle id="L0-HDV-92" type="L0-HDV" depart="115.00">
        <route edges="right-approaching bottom-exit"/>
    </vehicle>
    <vehicle id="L0-HDV-96" type="L0-HDV" depart="120.00">
        <route edges="bottom-approaching right-exit"/>
    </vehicle>
    <vehicle id="L0-HDV-97" type="L0-HDV" depart="121.25">
        <route edges="left-long-approaching preparation left-short-approaching bottom-exit"/>
    </vehicle>
    <vehicle id="L0-HDV-98" type="L0-HDV" depart="122.50">
        <route edges="bottom-approaching right-exit"/>
    </vehicle>
    <vehicle id="L0-HDV-99" type="L0-HDV-Straight-" depart="123.75">
        <route edges="left-long-approaching preparation left-short-approaching right-exit"/>
    </vehicle>
    <vehicle id="L0-HDV-100" type="L0-HDV-Left-" depart="125.00">
        <route edges="left-long-approaching preparation"/>
    </vehicle>
    <vehicle id="L0-HDV-101" type="L0-HDV" depart="126.25">
        <route edges="top-approaching bottom-exit"/>
    </vehicle>
    <vehicle id="L0-HDV-102" type="L0-HDV" depart="127.50">
        <route edges="bottom-approaching closed-lane remerging-lane left-exit"/>
    </vehicle>
    <vehicle id="L0-HDV-104" type="L0-HDV" depart="130.00">
        <route edges="left-long-approaching preparation left-short-approaching bottom-exit"/>
    </vehicle>
    <vehicle id="L0-HDV-105" type="L0-HDV" depart="131.25">
        <route edges="right-approaching top-exit"/>
    </vehicle>
    <vehicle id="L0-HDV-106" type="L0-HDV" depart="132.50">
        <route edges="top-approaching closed-lane remerging-lane left-exit"/>
    </vehicle>
    <vehicle id="L0-HDV-107" type="L0-HDV" depart="133.75">
        <route edges="top-approaching right-exit"/>
    </vehicle>
    <vehicle id="L0-HDV-108" type="L0-HDV-Left-" depart="135.00">
        <route edges="left-long-approaching preparation"/>
    </vehicle>
    <vehicle id="L0-HDV-109" type="L0-HDV" depart="136.25">
        <route edges="bottom-approaching right-exit"/>
    </vehicle>
    <vehicle id="L0-HDV-111" type="L0-HDV" depart="138.75">
        <route edges="top-approaching bottom-exit"/>
    </vehicle>
    <vehicle id="L0-HDV-112" type="L0-HDV" depart="140.00">
        <route edges="top-approaching right-exit"/>
    </vehicle>
    <vehicle id="L0-HDV-113" type="L0-HDV" depart="141.25">
        <route edges="top-approaching closed-lane remerging-lane left-exit"/>
    </vehicle>
    <vehicle id="L0-HDV-115" type="L0-HDV" depart="143.75">
        <route edges="top-approaching right-exit"/>
    </vehicle>
    <vehicle id="L0-HDV-117" type="L0-HDV" depart="146.25">
        <route edges="bottom-approaching right-exit"/>
    </vehicle>
    <vehicle id="L0-HDV-119" type="L0-HDV" depart="148.75">
        <route edges="bottom-approaching top-exit"/>
    </vehicle>
    <vehicle id="L0-HDV-121" type="L0-HDV-Straight-" depart="151.25">
        <route edges="left-long-approaching preparation left-short-approaching right-exit"/>
    </vehicle>
    <vehicle id="L0-HDV-122" type="L0-HDV" depart="152.50">
        <route edges="top-approaching closed-lane remerging-lane left-exit"/>
    </vehicle>
    <vehicle id="L0-HDV-123" type="L0-HDV" depart="153.75">
        <route edges="right-approaching bottom-exit"/>
    </vehicle>
    <vehicle id="L0-HDV-124" type="L0-HDV" depart="155.00">
        <route edges="bottom-approaching closed-lane remerging-lane left-exit"/>
    </vehicle>
    <vehicle id="L0-HDV-125" type="L0-HDV" depart="156.25">
        <route edges="top-approaching right-exit"/>
    </vehicle>
    <vehicle id="L0-HDV-126" type="L0-HDV" depart="157.50">
        <route edges="top-approaching closed-lane remerging-lane left-exit"/>
    </vehicle>
    <vehicle id="L0-HDV-127" type="L0-HDV-Left-" depart="158.75">
        <route edges="left-long-approaching preparation"/>
    </vehicle>
    <vehicle id="L0-HDV-128" type="L0-HDV" depart="160.00">
        <route edges="top-approaching bottom-exit"/>
    </vehicle>
    <vehicle id="L0-HDV-129" type="L0-HDV" depart="161.25">
        <route edges="right-approaching bottom-exit"/>
    </vehicle>
    <vehicle id="L0-HDV-130" type="L0-HDV" depart="162.50">
        <route edges="bottom-approaching top-exit"/>
    </vehicle>
    <vehicle id="L0-HDV-132" type="L0-HDV" depart="165.00">
        <route edges="top-approaching closed-lane remerging-lane left-exit"/>
    </vehicle>
    <vehicle id="L0-HDV-134" type="L0-HDV" depart="167.50">
        <route edges="bottom-approaching right-exit"/>
    </vehicle>
    <vehicle id="L0-HDV-135" type="L0-HDV" depart="168.75">
        <route edges="bottom-approaching top-exit"/>
    </vehicle>
    <vehicle id="L0-HDV-136" type="L0-HDV-Left-" depart="170.00">
        <route edges="left-long-approaching preparation"/>
    </vehicle>
    <vehicle id="L0-HDV-137" type="L0-HDV" depart="171.25">
        <route edges="top-approaching closed-lane remerging-lane left-exit"/>
    </vehicle>
    <vehicle id="L0-HDV-139" type="L0-HDV" depart="173.75">
        <route edges="bottom-approaching right-exit"/>
    </vehicle>
    <vehicle id="L0-HDV-141" type="L0-HDV" depart="176.25">
        <route edges="top-approaching closed-lane remerging-lane left-exit"/>
    </vehicle>
    <vehicle id="L0-HDV-142" type="L0-HDV" depart="177.50">
        <route edges="right-approaching closed-lane remerging-lane left-exit"/>
    </vehicle>
    <vehicle id="L0-HDV-143" type="L0-HDV" depart="178.75">
        <route edges="left-long-approaching preparation left-short-approaching bottom-exit"/>
    </vehicle>
    <vehicle id="L0-HDV-145" type="L0-HDV" depart="181.25">
        <route edges="top-approaching bottom-exit"/>
    </vehicle>
    <vehicle id="L0-HDV-146" type="L0-HDV" depart="182.50">
        <route edges="bottom-approaching right-exit"/>
    </vehicle>
    <vehicle id="L0-HDV-147" type="L0-HDV" depart="183.75">
        <route edges="top-approaching right-exit"/>
    </vehicle>
    <vehicle id="L0-HDV-149" type="L0-HDV-Straight-" depart="186.25">
        <route edges="left-long-approaching preparation left-short-approaching right-exit"/>
    </vehicle>
    <vehicle id="L0-HDV-150" type="L0-HDV" depart="187.50">
        <route edges="left-long-approaching preparation left-short-approaching bottom-exit"/>
    </vehicle>
    <vehicle id="L0-HDV-151" type="L0-HDV" depart="188.75">
        <route edges="bottom-approaching closed-lane remerging-lane left-exit"/>
    </vehicle>
    <vehicle id="L0-HDV-152" type="L0-HDV" depart="190.00">
        <route edges="top-approaching closed-lane remerging-lane left-exit"/>
    </vehicle>
    <vehicle id="L0-HDV-154" type="L0-HDV" depart="192.50">
        <route edges="top-approaching closed-lane remerging-lane left-exit"/>
    </vehicle>
    <vehicle id="L0-HDV-156" type="L0-HDV-Left-" depart="195.00">
        <route edges="left-long-approaching preparation"/>
    </vehicle>
    <vehicle id="L0-HDV-157" type="L0-HDV" depart="196.25">
        <route edges="top-approaching closed-lane remerging-lane left-exit"/>
    </vehicle>
    <vehicle id="L0-HDV-158" type="L0-HDV-Straight-" depart="197.50">
        <route edges="left-long-approaching preparation left-short-approaching right-exit"/>
    </vehicle>
    <vehicle id="L0-HDV-162" type="L0-HDV" depart="202.50">
        <route edges="right-approaching bottom-exit"/>
    </vehicle>
    <vehicle id="L0-HDV-163" type="L0-HDV" depart="203.75">
        <route edges="bottom-approaching right-exit"/>
    </vehicle>
    <vehicle id="L0-HDV-164" type="L0-HDV-Left-" depart="205.00">
        <route edges="left-long-approaching preparation"/>
    </vehicle>
    <vehicle id="L0-HDV-165" type="L0-HDV-Left-" depart="206.25">
        <route edges="left-long-approaching preparation"/>
    </vehicle>
    <vehicle id="L0-HDV-167" type="L0-HDV" depart="208.75">
        <route edges="top-approaching bottom-exit"/>
    </vehicle>
    <vehicle id="L0-HDV-168" type="L0-HDV" depart="210.00">
        <route edges="top-approaching bottom-exit"/>
    </vehicle>
    <vehicle id="L0-HDV-170" type="L0-HDV" depart="212.50">
        <route edges="top-approaching closed-lane remerging-lane left-exit"/>
    </vehicle>
    <vehicle id="L0-HDV-171" type="L0-HDV" depart="213.75">
        <route edges="bottom-approaching right-exit"/>
    </vehicle>
    <vehicle id="L0-HDV-172" type="L0-HDV" depart="215.00">
        <route edges="top-approaching closed-lane remerging-lane left-exit"/>
    </vehicle>
    <vehicle id="L0-HDV-173" type="L0-HDV" depart="216.25">
        <route edges="top-approaching bottom-exit"/>
    </vehicle>
    <vehicle id="L0-HDV-174" type="L0-HDV" depart="217.50">
        <route edges="top-approaching bottom-exit"/>
    </vehicle>
    <vehicle id="L0-HDV-175" type="L0-HDV-Left-" depart="218.75">
        <route edges="left-long-approaching preparation"/>
    </vehicle>
    <vehicle id="L0-HDV-177" type="L0-HDV" depart="221.25">
        <route edges="top-approaching right-exit"/>
    </vehicle>
    <vehicle id="L0-HDV-178" type="L0-HDV" depart="222.50">
        <route edges="right-approaching bottom-exit"/>
    </vehicle>
    <vehicle id="L0-HDV-179" type="L0-HDV" depart="223.75">
        <route edges="left-long-approaching preparation left-short-approaching bottom-exit"/>
    </vehicle>
    <vehicle id="L0-HDV-181" type="L0-HDV" depart="226.25">
        <route edges="left-long-approaching preparation left-short-approaching bottom-exit"/>
    </vehicle>
    <vehicle id="L0-HDV-184" type="L0-HDV" depart="230.00">
        <route edges="top-approaching closed-lane remerging-lane left-exit"/>
    </vehicle>
    <vehicle id="L0-HDV-186" type="L0-HDV" depart="232.50">
        <route edges="left-long-approaching preparation left-short-approaching bottom-exit"/>
    </vehicle>
    <vehicle id="L0-HDV-187" type="L0-HDV" depart="233.75">
        <route edges="right-approaching closed-lane remerging-lane left-exit"/>
    </vehicle>
    <vehicle id="L0-HDV-188" type="L0-HDV" depart="235.00">
        <route edges="right-approaching bottom-exit"/>
    </vehicle>
    <vehicle id="L0-HDV-189" type="L0-HDV" depart="236.25">
        <route edges="left-long-approaching preparation left-short-approaching bottom-exit"/>
    </vehicle>
    <vehicle id="L0-HDV-190" type="L0-HDV" depart="237.50">
        <route edges="bottom-approaching closed-lane remerging-lane left-exit"/>
    </vehicle>
    <vehicle id="L0-HDV-191" type="L0-HDV" depart="238.75">
        <route edges="top-approaching closed-lane remerging-lane left-exit"/>
    </vehicle>
    <vehicle id="L0-HDV-192" type="L0-HDV-Straight-" depart="240.00">
        <route edges="left-long-approaching preparation left-short-approaching right-exit"/>
    </vehicle>
    <vehicle id="L0-HDV-195" type="L0-HDV" depart="243.75">
        <route edges="right-approaching closed-lane remerging-lane left-exit"/>
    </vehicle>
    <vehicle id="L0-HDV-197" type="L0-HDV" depart="246.25">
        <route edges="bottom-approaching closed-lane remerging-lane left-exit"/>
    </vehicle>
    <vehicle id="L0-HDV-198" type="L0-HDV" depart="247.50">
        <route edges="left-long-approaching preparation left-short-approaching bottom-exit"/>
    </vehicle>
    <vehicle id="L0-HDV-199" type="L0-HDV-Straight-" depart="248.75">
        <route edges="left-long-approaching preparation left-short-approaching right-exit"/>
    </vehicle>
    <vehicle id="L0-HDV-201" type="L0-HDV-Straight-" depart="251.25">
        <route edges="left-long-approaching preparation left-short-approaching right-exit"/>
    </vehicle>
    <vehicle id="L0-HDV-203" type="L0-HDV" depart="253.75">
        <route edges="right-approaching top-exit"/>
    </vehicle>
    <vehicle id="L0-HDV-204" type="L0-HDV" depart="255.00">
        <route edges="bottom-approaching top-exit"/>
    </vehicle>
    <vehicle id="L0-HDV-205" type="L0-HDV" depart="256.25">
        <route edges="top-approaching closed-lane remerging-lane left-exit"/>
    </vehicle>
    <vehicle id="L0-HDV-206" type="L0-HDV" depart="257.50">
        <route edges="right-approaching top-exit"/>
    </vehicle>
    <vehicle id="L0-HDV-207" type="L0-HDV-Straight-" depart="258.75">
        <route edges="left-long-approaching preparation left-short-approaching right-exit"/>
    </vehicle>
    <vehicle id="L0-HDV-210" type="L0-HDV" depart="262.50">
        <route edges="top-approaching right-exit"/>
    </vehicle>
    <vehicle id="L0-HDV-211" type="L0-HDV" depart="263.75">
        <route edges="bottom-approaching closed-lane remerging-lane left-exit"/>
    </vehicle>
    <vehicle id="L0-HDV-212" type="L0-HDV" depart="265.00">
        <route edges="bottom-approaching right-exit"/>
    </vehicle>
    <vehicle id="L0-HDV-213" type="L0-HDV" depart="266.25">
        <route edges="top-approaching bottom-exit"/>
    </vehicle>
    <vehicle id="L0-HDV-215" type="L0-HDV-Straight-" depart="268.75">
        <route edges="left-long-approaching preparation left-short-approaching right-exit"/>
    </vehicle>
    <vehicle id="L0-HDV-216" type="L0-HDV" depart="270.00">
        <route edges="bottom-approaching right-exit"/>
    </vehicle>
    <vehicle id="L0-HDV-217" type="L0-HDV" depart="271.25">
        <route edges="bottom-approaching top-exit"/>
    </vehicle>
    <vehicle id="L0-HDV-218" type="L0-HDV" depart="272.50">
        <route edges="top-approaching right-exit"/>
    </vehicle>
    <vehicle id="L0-HDV-219" type="L0-HDV-Left-" depart="273.75">
        <route edges="left-long-approaching preparation"/>
    </vehicle>
    <vehicle id="L0-HDV-220" type="L0-HDV" depart="275.00">
        <route edges="top-approaching bottom-exit"/>
    </vehicle>
    <vehicle id="L0-HDV-223" type="L0-HDV-Left-" depart="278.75">
        <route edges="left-long-approaching preparation"/>
    </vehicle>
    <vehicle id="L0-HDV-224" type="L0-HDV" depart="280.00">
        <route edges="top-approaching closed-lane remerging-lane left-exit"/>
    </vehicle>
    <vehicle id="L0-HDV-225" type="L0-HDV" depart="281.25">
        <route edges="top-approaching closed-lane remerging-lane left-exit"/>
    </vehicle>
    <vehicle id="L0-HDV-226" type="L0-HDV" depart="282.50">
        <route edges="bottom-approaching closed-lane remerging-lane left-exit"/>
    </vehicle>
    <vehicle id="L0-HDV-227" type="L0-HDV" depart="283.75">
        <route edges="bottom-approaching top-exit"/>
    </vehicle>
    <vehicle id="L0-HDV-228" type="L0-HDV" depart="285.00">
        <route edges="top-approaching bottom-exit"/>
    </vehicle>
    <vehicle id="L0-HDV-229" type="L0-HDV" depart="286.25">
        <route edges="right-approaching closed-lane remerging-lane left-exit"/>
    </vehicle>
    <vehicle id="L0-HDV-230" type="L0-HDV" depart="287.50">
        <route edges="bottom-approaching closed-lane remerging-lane left-exit"/>
    </vehicle>
    <vehicle id="L0-HDV-233" type="L0-HDV" depart="291.25">
        <route edges="left-long-approaching preparation left-short-approaching bottom-exit"/>
    </vehicle>
    <vehicle id="L0-HDV-235" type="L0-HDV" depart="293.75">
        <route edges="top-approaching bottom-exit"/>
    </vehicle>
    <vehicle id="L0-HDV-236" type="L0-HDV-Straight-" depart="295.00">
        <route edges="left-long-approaching preparation left-short-approaching right-exit"/>
    </vehicle>
    <vehicle id="L0-HDV-237" type="L0-HDV-Straight-" depart="296.25">
        <route edges="left-long-approaching preparation left-short-approaching right-exit"/>
    </vehicle>
    <vehicle id="L0-HDV-238" type="L0-HDV-Straight-" depart="297.50">
        <route edges="left-long-approaching preparation left-short-approaching right-exit"/>
    </vehicle>
    <vehicle id="L0-HDV-240" type="L0-HDV" depart="300.00">
        <route edges="top-approaching right-exit"/>
    </vehicle>
    <vehicle id="L0-HDV-241" type="L0-HDV-Left-" depart="301.25">
        <route edges="left-long-approaching preparation"/>
    </vehicle>
    <vehicle id="L0-HDV-242" type="L0-HDV" depart="302.50">
        <route edges="top-approaching right-exit"/>
    </vehicle>
    <vehicle id="L0-HDV-244" type="L0-HDV" depart="305.00">
        <route edges="bottom-approaching top-exit"/>
    </vehicle>
    <vehicle id="L0-HDV-245" type="L0-HDV" depart="306.25">
        <route edges="bottom-approaching right-exit"/>
    </vehicle>
    <vehicle id="L0-HDV-246" type="L0-HDV" depart="307.50">
        <route edges="right-approaching top-exit"/>
    </vehicle>
    <vehicle id="L0-HDV-249" type="L0-HDV" depart="311.25">
        <route edges="right-approaching closed-lane remerging-lane left-exit"/>
    </vehicle>
    <vehicle id="L0-HDV-251" type="L0-HDV" depart="313.75">
        <route edges="right-approaching bottom-exit"/>
    </vehicle>
    <vehicle id="L0-HDV-254" type="L0-HDV" depart="317.50">
        <route edges="top-approaching right-exit"/>
    </vehicle>
    <vehicle id="L0-HDV-255" type="L0-HDV-Straight-" depart="318.75">
        <route edges="left-long-approaching preparation left-short-approaching right-exit"/>
    </vehicle>
    <vehicle id="L0-HDV-256" type="L0-HDV" depart="320.00">
        <route edges="left-long-approaching preparation left-short-approaching bottom-exit"/>
    </vehicle>
    <vehicle id="L0-HDV-257" type="L0-HDV" depart="321.25">
        <route edges="bottom-approaching closed-lane remerging-lane left-exit"/>
    </vehicle>
    <vehicle id="L0-HDV-258" type="L0-HDV" depart="322.50">
        <route edges="right-approaching top-exit"/>
    </vehicle>
    <vehicle id="L0-HDV-259" type="L0-HDV" depart="323.75">
        <route edges="top-approaching right-exit"/>
    </vehicle>
    <vehicle id="L0-HDV-260" type="L0-HDV" depart="325.00">
        <route edges="top-approaching closed-lane remerging-lane left-exit"/>
    </vehicle>
    <vehicle id="L0-HDV-261" type="L0-HDV" depart="326.25">
        <route edges="top-approaching closed-lane remerging-lane left-exit"/>
    </vehicle>
    <vehicle id="L0-HDV-262" type="L0-HDV" depart="327.50">
        <route edges="right-approaching top-exit"/>
    </vehicle>
    <vehicle id="L0-HDV-263" type="L0-HDV" depart="328.75">
        <route edges="left-long-approaching preparation left-short-approaching bottom-exit"/>
    </vehicle>
    <vehicle id="L0-HDV-265" type="L0-HDV" depart="331.25">
        <route edges="left-long-approaching preparation left-short-approaching bottom-exit"/>
    </vehicle>
    <vehicle id="L0-HDV-267" type="L0-HDV-Left-" depart="333.75">
        <route edges="left-long-approaching preparation"/>
    </vehicle>
    <vehicle id="L0-HDV-269" type="L0-HDV" depart="336.25">
        <route edges="top-approaching right-exit"/>
    </vehicle>
    <vehicle id="L0-HDV-270" type="L0-HDV-Straight-" depart="337.50">
        <route edges="left-long-approaching preparation left-short-approaching right-exit"/>
    </vehicle>
    <vehicle id="L0-HDV-272" type="L0-HDV" depart="340.00">
        <route edges="right-approaching closed-lane remerging-lane left-exit"/>
    </vehicle>
    <vehicle id="L0-HDV-276" type="L0-HDV" depart="345.00">
        <route edges="top-approaching right-exit"/>
    </vehicle>
    <vehicle id="L0-HDV-278" type="L0-HDV" depart="347.50">
        <route edges="right-approaching top-exit"/>
    </vehicle>
    <vehicle id="L0-HDV-279" type="L0-HDV" depart="348.75">
        <route edges="right-approaching bottom-exit"/>
    </vehicle>
    <vehicle id="L0-HDV-280" type="L0-HDV" depart="350.00">