<?xml version="1.0" ?><!-- generated on 03/24/21 21:11:28 by Eclipse SUMO duarouter Version 1.8.0
<configuration xmlns:xsi="http://www.w3.org/2001/XMLSchema-instance" xsi:noNamespaceSchemaLocation="http://sumo.dlr.de/xsd/duarouterConfiguration.xsd">

    <input>
        <net-file value="Roadworks/RoadworksIntersection.net.xml"/>
        <route-files value="trips.trips.xml"/>
    </input>

    <output>
        <output-file value="Roadworks/BaselinePenetration2/Route-Files/L2-AV-Route.rou.xml"/>
        <alternatives-output value="Roadworks/BaselinePenetration2/Route-Files/L2-AV-Route.rou.alt.xml"/>
    </output>

    <time>
        <begin value="0"/>
        <end value="3600"/>
    </time>

    <report>
        <no-warnings value="true"/>
        <ignore-errors value="true"/>
        <no-step-log value="true"/>
    </report>

</configuration>
--><routes xmlns:xsi="http://www.w3.org/2001/XMLSchema-instance" xsi:noNamespaceSchemaLocation="http://sumo.dlr.de/xsd/routes_file.xsd">
    <vehicle id="L2-AV-2" type="L2-AV-" depart="36.00">
        <route edges="bottom-approaching right-exit"/>
    </vehicle>
    <vehicle id="L2-AV-3" type="L2-AV-Left-" depart="54.00">
        <route edges="left-long-approaching preparation"/>
    </vehicle>
    <vehicle id="L2-AV-4" type="L2-AV-Left-" depart="72.00">
        <route edges="left-long-approaching preparation"/>
    </vehicle>
    <vehicle id="L2-AV-5" type="L2-AV-Left-" depart="90.00">
        <route edges="left-long-approaching preparation"/>
    </vehicle>
    <vehicle id="L2-AV-6" type="L2-AV-" depart="108.00">
        <route edges="right-approaching closed-lane remerging-lane left-exit"/>
    </vehicle>
    <vehicle id="L2-AV-8" type="L2-AV-" depart="144.00">
        <route edges="bottom-approaching right-exit"/>
    </vehicle>
    <vehicle id="L2-AV-9" type="L2-AV-" depart="162.00">
        <route edges="top-approaching closed-lane remerging-lane left-exit"/>
    </vehicle>
    <vehicle id="L2-AV-10" type="L2-AV-" depart="180.00">
        <route edges="top-approaching right-exit"/>
    </vehicle>
    <vehicle id="L2-AV-11" type="L2-AV-" depart="198.00">
        <route edges="top-approaching closed-lane remerging-lane left-exit"/>
    </vehicle>
    <vehicle id="L2-AV-12" type="L2-AV-" depart="216.00">
        <route edges="bottom-approaching top-exit"/>
    </vehicle>
    <vehicle id="L2-AV-13" type="L2-AV-" depart="234.00">
        <route edges="top-approaching closed-lane remerging-lane left-exit"/>
    </vehicle>
    <vehicle id="L2-AV-15" type="L2-AV-" depart="270.00">
        <route edges="right-approaching closed-lane remerging-lane left-exit"/>
    </vehicle>
    <vehicle id="L2-AV-16" type="L2-AV-" depart="288.00">
        <route edges="top-approaching right-exit"/>
    </vehicle>
    <vehicle id="L2-AV-17" type="L2-AV-" depart="306.00">
        <route edges="bottom-approaching right-exit"/>
    </vehicle>
    <vehicle id="L2-AV-18" type="L2-AV-Left-" depart="324.00">
        <route edges="left-long-approaching preparation"/>
    </vehicle>
    <vehicle id="L2-AV-19" type="L2-AV-" depart="342.00">
        <route edges="top-approaching right-exit"/>
    </vehicle>
    <vehicle id="L2-AV-22" type="L2-AV-" depart="396.00">
        <route edges="bottom-approaching closed-lane remerging-lane left-exit"/>
    </vehicle>
    <vehicle id="L2-AV-23" type="L2-AV-" depart="414.00">
        <route edges="right-approaching closed-lane remerging-lane left-exit"/>
    </vehicle>
    <vehicle id="L2-AV-24" type="L2-AV-" depart="432.00">
        <route edges="right-approaching bottom-exit"/>
    </vehicle>
    <vehicle id="L2-AV-25" type="L2-AV-" depart="450.00">
        <route edges="top-approaching right-exit"/>
    </vehicle>
    <vehicle id="L2-AV-26" type="L2-AV-" depart="468.00">
        <route edges="bottom-approaching right-exit"/>
    </vehicle>
    <vehicle id="L2-AV-27" type="L2-AV-Right-" depart="486.00">
        <route edges="left-long-approaching preparation left-short-approaching bottom-exit"/>
    </vehicle>
    <vehicle id="L2-AV-28" type="L2-AV-Right-" depart="504.00">
        <route edges="left-long-approaching preparation left-short-approaching bottom-exit"/>
    </vehicle>
    <vehicle id="L2-AV-29" type="L2-AV-" depart="522.00">
        <route edges="bottom-approaching top-exit"/>
    </vehicle>
    <vehicle id="L2-AV-30" type="L2-AV-" depart="540.00">
        <route edges="right-approaching bottom-exit"/>
    </vehicle>
    <vehicle id="L2-AV-31" type="L2-AV-" depart="558.00">
        <route edges="top-approaching bottom-exit"/>
    </vehicle>
    <vehicle id="L2-AV-32" type="L2-AV-Left-" depart="576.00">
        <route edges="left-long-approaching preparation"/>
    </vehicle>
    <vehicle id="L2-AV-33" type="L2-AV-" depart="594.00">
        <route edges="right-approaching closed-lane remerging-lane left-exit"/>
    </vehicle>
    <vehicle id="L2-AV-35" type="L2-AV-" depart="630.00">
        <route edges="bottom-approaching top-exit"/>
    </vehicle>
    <vehicle id="L2-AV-36" type="L2-AV-" depart="648.00">
        <route edges="bottom-approaching closed-lane remerging-lane left-exit"/>
    </vehicle>
    <vehicle id="L2-AV-37" type="L2-AV-" depart="666.00">
        <route edges="right-approaching closed-lane remerging-lane left-exit"/>
    </vehicle>
    <vehicle id="L2-AV-38" type="L2-AV-" depart="684.00">
        <route edges="top-approaching bottom-exit"/>
    </vehicle>
    <vehicle id="L2-AV-40" type="L2-AV-" depart="720.00">
        <route edges="right-approaching top-exit"/>
    </vehicle>
    <vehicle id="L2-AV-41" type="L2-AV-Left-" depart="738.00">
        <route edges="left-long-approaching preparation"/>
    </vehicle>
    <vehicle id="L2-AV-42" type="L2-AV-" depart="756.00">
        <route edges="top-approaching right-exit"/>
    </vehicle>
    <vehicle id="L2-AV-43" type="L2-AV-" depart="774.00">
        <route edges="left-long-approaching preparation left-short-approaching right-exit"/>
    </vehicle>
    <vehicle id="L2-AV-44" type="L2-AV-Right-" depart="792.00">
        <route edges="left-long-approaching preparation left-short-approaching bottom-exit"/>
    </vehicle>
    <vehicle id="L2-AV-45" type="L2-AV-" depart="810.00">
        <route edges="right-approaching closed-lane remerging-lane left-exit"/>
    </vehicle>
    <vehicle id="L2-AV-46" type="L2-AV-Left-" depart="828.00">
        <route edges="left-long-approaching preparation"/>
    </vehicle>
    <vehicle id="L2-AV-48" type="L2-AV-" depart="864.00">
        <route edges="bottom-approaching right-exit"/>
    </vehicle>
    <vehicle id="L2-AV-50" type="L2-AV-Left-" depart="900.00">
        <route edges="left-long-approaching preparation"/>
    </vehicle>
    <vehicle id="L2-AV-52" type="L2-AV-" depart="936.00">
        <route edges="top-approaching right-exit"/>
    </vehicle>
    <vehicle id="L2-AV-54" type="L2-AV-Right-" depart="972.00">
        <route edges="left-long-approaching preparation left-short-approaching bottom-exit"/>
    </vehicle>
    <vehicle id="L2-AV-56" type="L2-AV-" depart="1008.00">
        <route edges="top-approaching closed-lane remerging-lane left-exit"/>
    </vehicle>
    <vehicle id="L2-AV-57" type="L2-AV-" depart="1026.00">
        <route edges="right-approaching top-exit"/>
    </vehicle>
    <vehicle id="L2-AV-58" type="L2-AV-" depart="1044.00">
        <route edges="top-approaching closed-lane remerging-lane left-exit"/>
    </vehicle>
    <vehicle id="L2-AV-59" type="L2-AV-" depart="1062.00">
        <route edges="right-approaching closed-lane remerging-lane left-exit"/>
    </vehicle>
    <vehicle id="L2-AV-62" type="L2-AV-Right-" depart="1116.00">
        <route edges="left-long-approaching preparation left-short-approaching bottom-exit"/>
    </vehicle>
    <vehicle id="L2-AV-63" type="L2-AV-Right-" depart="1134.00">
        <route edges="left-long-approaching preparation left-short-approaching bottom-exit"/>
    </vehicle>
    <vehicle id="L2-AV-64" type="L2-AV-" depart="1152.00">
        <route edges="bottom-approaching top-exit"/>
    </vehicle>
    <vehicle id="L2-AV-65" type="L2-AV-" depart="1170.00">
        <route edges="bottom-approaching right-exit"/>
    </vehicle>
    <vehicle id="L2-AV-66" type="L2-AV-Left-" depart="1188.00">
        <route edges="left-long-approaching preparation"/>
    </vehicle>
    <vehicle id="L2-AV-67" type="L2-AV-" depart="1206.00">
        <route edges="top-approaching bottom-exit"/>
    </vehicle>
    <vehicle id="L2-AV-68" type="L2-AV-" depart="1224.00">
        <route edges="bottom-approaching top-exit"/>
    </vehicle>
    <vehicle id="L2-AV-69" type="L2-AV-" depart="1242.00">
        <route edges="right-approaching closed-lane remerging-lane left-exit"/>
    </vehicle>
    <vehicle id="L2-AV-72" type="L2-AV-" depart="1296.00">
        <route edges="bottom-approaching closed-lane remerging-lane left-exit"/>
    </vehicle>
    <vehicle id="L2-AV-73" type="L2-AV-" depart="1314.00">
        <route edges="bottom-approaching right-exit"/>
    </vehicle>
    <vehicle id="L2-AV-74" type="L2-AV-" depart="1332.00">
        <route edges="right-approaching bottom-exit"/>
    </vehicle>
    <vehicle id="L2-AV-75" type="L2-AV-" depart="1350.00">
        <route edges="right-approaching bottom-exit"/>
    </vehicle>
    <vehicle id="L2-AV-76" type="L2-AV-" depart="1368.00">
        <route edges="bottom-approaching right-exit"/>
    </vehicle>
    <vehicle id="L2-AV-77" type="L2-AV-Left-" depart="1386.00">
        <route edges="left-long-approaching preparation"/>
    </vehicle>
    <vehicle id="L2-AV-79" type="L2-AV-" depart="1422.00">
        <route edges="bottom-approaching top-exit"/>
    </vehicle>
    <vehicle id="L2-AV-80" type="L2-AV-" depart="1440.00">
        <route edges="bottom-approaching right-exit"/>
    </vehicle>
    <vehicle id="L2-AV-82" type="L2-AV-" depart="1476.00">
        <route edges="top-approaching closed-lane remerging-lane left-exit"/>
    </vehicle>
    <vehicle id="L2-AV-83" type="L2-AV-" depart="1494.00">
        <route edges="right-approaching top-exit"/>
    </vehicle>
    <vehicle id="L2-AV-84" type="L2-AV-" depart="1512.00">
        <route edges="bottom-approaching top-exit"/>
    </vehicle>
    <vehicle id="L2-AV-85" type="L2-AV-" depart="1530.00">
        <route edges="top-approaching closed-lane remerging-lane left-exit"/>
    </vehicle>
    <vehicle id="L2-AV-86" type="L2-AV-" depart="1548.00">
        <route edges="top-approaching closed-lane remerging-lane left-exit"/>
    </vehicle>
    <vehicle id="L2-AV-87" type="L2-AV-" depart="1566.00">
        <route edges="left-long-approaching preparation left-short-approaching right-exit"/>
    </vehicle>
    <vehicle id="L2-AV-88" type="L2-AV-" depart="1584.00">
        <route edges="bottom-approaching top-exit"/>
    </vehicle>
    <vehicle id="L2-AV-89" type="L2-AV-" depart="1602.00">
        <route edges="top-approaching closed-lane remerging-lane left-exit"/>
    </vehicle>
    <vehicle id="L2-AV-90" type="L2-AV-" depart="1620.00">
        <route edges="top-approaching bottom-exit"/>
    </vehicle>
    <vehicle id="L2-AV-91" type="L2-AV-" depart="1638.00">
        <route edges="top-approaching closed-lane remerging-lane left-exit"/>
    </vehicle>
    <vehicle id="L2-AV-92" type="L2-AV-" depart="1656.00">
        <route edges="top-approaching closed-lane remerging-lane left-exit"/>
    </vehicle>
    <vehicle id="L2-AV-93" type="L2-AV-" depart="1674.00">
        <route edges="top-approaching bottom-exit"/>
    </vehicle>
    <vehicle id="L2-AV-94" type="L2-AV-" depart="1692.00">
        <route edges="bottom-approaching top-exit"/>
    </vehicle>
    <vehicle id="L2-AV-97" type="L2-AV-Right-" depart="1746.00">
        <route edges="left-long-approaching preparation left-short-approaching bottom-exit"/>
    </vehicle>
    <vehicle id="L2-AV-99" type="L2-AV-" depart="1782.00">
        <route edges="top-approaching right-exit"/>
    </vehicle>
    <vehicle id="L2-AV-100" type="L2-AV-Right-" depart="1800.00">
        <route edges="left-long-approaching preparation left-short-approaching bottom-exit"/>
    </vehicle>
    <vehicle id="L2-AV-101" type="L2-AV-" depart="1818.00">
        <route edges="right-approaching bottom-exit"/>
    </vehicle>
    <vehicle id="L2-AV-102" type="L2-AV-" depart="1836.00">
        <route edges="right-approaching closed-lane remerging-lane left-exit"/>
    </vehicle>
    <vehicle id="L2-AV-103" type="L2-AV-Right-" depart="1854.00">
        <route edges="left-long-approaching preparation left-short-approaching bottom-exit"/>
    </vehicle>
    <vehicle id="L2-AV-104" type="L2-AV-" depart="1872.00">
        <route edges="bottom-approaching right-exit"/>
    </vehicle>
    <vehicle id="L2-AV-105" type="L2-AV-" depart="1890.00">
        <route edges="bottom-approaching right-exit"/>
    </vehicle>
    <vehicle id="L2-AV-106" type="L2-AV-" depart="1908.00">
        <route edges="bottom-approaching closed-lane remerging-lane left-exit"/>
    </vehicle>
    <vehicle id="L2-AV-107" type="L2-AV-" depart="1926.00">
        <route edges="bottom-approaching right-exit"/>
    </vehicle>
    <vehicle id="L2-AV-108" type="L2-AV-Right-" depart="1944.00">
        <route edges="left-long-approaching preparation left-short-approaching bottom-exit"/>
    </vehicle>
    <vehicle id="L2-AV-109" type="L2-AV-" depart="1962.00">
        <route edges="bottom-approaching right-exit"/>
    </vehicle>
    <vehicle id="L2-AV-110" type="L2-AV-" depart="1980.00">
        <route edges="top-approaching closed-lane remerging-lane left-exit"/>
    </vehicle>
    <vehicle id="L2-AV-111" type="L2-AV-" depart="1998.00">
        <route edges="bottom-approaching closed-lane remerging-lane left-exit"/>
    </vehicle>
    <vehicle id="L2-AV-112" type="L2-AV-" depart="2016.00">
        <route edges="bottom-approaching right-exit"/>
    </vehicle>
    <vehicle id="L2-AV-113" type="L2-AV-" depart="2034.00">
        <route edges="top-approaching right-exit"/>
    </vehicle>
    <vehicle id="L2-AV-114" type="L2-AV-" depart="2052.00">
        <route edges="bottom-approaching closed-lane remerging-lane left-exit"/>
    </vehicle>
    <vehicle id="L2-AV-116" type="L2-AV-Left-" depart="2088.00">
        <route edges="left-long-approaching preparation"/>
    </vehicle>
    <vehicle id="L2-AV-119" type="L2-AV-" depart="2142.00">
        <route edges="top-approaching closed-lane remerging-lane left-exit"/>
    </vehicle>
    <vehicle id="L2-AV-120" type="L2-AV-" depart="2160.00">
        <route edges="right-approaching top-exit"/>
    </vehicle>
    <vehicle id="L2-AV-121" type="L2-AV-" depart="2178.00">
        <route edges="bottom-approaching right-exit"/>
    </vehicle>
    <vehicle id="L2-AV-122" type="L2-AV-Right-" depart="2196.00">
        <route edges="left-long-approaching preparation left-short-approaching bottom-exit"/>
    </vehicle>
    <vehicle id="L2-AV-123" type="L2-AV-" depart="2214.00">
        <route edges="bottom-approaching top-exit"/>
    </vehicle>
    <vehicle id="L2-AV-124" type="L2-AV-" depart="2232.00">
        <route edges="bottom-approaching right-exit"/>
    </vehicle>
    <vehicle id="L2-AV-125" type="L2-AV-" depart="2250.00">
        <route edges="bottom-approaching closed-lane remerging-lane left-exit"/>
    </vehicle>
    <vehicle id="L2-AV-126" type="L2-AV-" depart="2268.00">
        <route edges="bottom-approaching right-exit"/>
    </vehicle>
    <vehicle id="L2-AV-127" type="L2-AV-" depart="2286.00">
        <route edges="top-approaching bottom-exit"/>
    </vehicle>
    <vehicle id="L2-AV-128" type="L2-AV-" depart="2304.00">
        <route edges="right-approaching top-exit"/>
    </vehicle>
    <vehicle id="L2-AV-130" type="L2-AV-" depart="2340.00">
        <route edges="right-approaching top-exit"/>
    </vehicle>
    <vehicle id="L2-AV-131" type="L2-AV-" depart="2358.00">
        <route edges="bottom-approaching right-exit"/>
    </vehicle>
    <vehicle id="L2-AV-133" type="L2-AV-" depart="2394.00">
        <route edges="top-approaching bottom-exit"/>
    </vehicle>
    <vehicle id="L2-AV-134" type="L2-AV-" depart="2412.00">
        <route edges="top-approaching right-exit"/>
    </vehicle>
    <vehicle id="L2-AV-136" type="L2-AV-" depart="2448.00">
        <route edges="right-approaching closed-lane remerging-lane left-exit"/>
    </vehicle>
    <vehicle id="L2-AV-137" type="L2-AV-Right-" depart="2466.00">
        <route edges="left-long-approaching preparation left-short-approaching bottom-exit"/>
    </vehicle>
    <vehicle id="L2-AV-139" type="L2-AV-" depart="2502.00">
        <route edges="top-approaching bottom-exit"/>
    </vehicle>
    <vehicle id="L2-AV-140" type="L2-AV-" depart="2520.00">
        <route edges="right-approaching closed-lane remerging-lane left-exit"/>
    </vehicle>
    <vehicle id="L2-AV-141" type="L2-AV-" depart="2538.00">
        <route edges="top-approaching right-exit"/>
    </vehicle>
    <vehicle id="L2-AV-142" type="L2-AV-" depart="2556.00">
        <route edges="top-approaching right-exit"/>
    </vehicle>
    <vehicle id="L2-AV-143" type="L2-AV-" depart="2574.00">
        <route edges="right-approaching top-exit"/>
    </vehicle>
    <vehicle id="L2-AV-144" type="L2-AV-" depart="2592.00">
        <route edges="bottom-approaching right-exit"/>
    </vehicle>
    <vehicle id="L2-AV-145" type="L2-AV-" depart="2610.00">
        <route edges="bottom-approaching closed-lane remerging-lane left-exit"/>
    </vehicle>
    <vehicle id="L2-AV-146" type="L2-AV-" depart="2628.00">
        <route edges="bottom-approaching top-exit"/>
    </vehicle>
    <vehicle id="L2-AV-147" type="L2-AV-" depart="2646.00">
        <route edges="bottom-approaching top-exit"/>
    </vehicle>
    <vehicle id="L2-AV-148" type="L2-AV-" depart="2664.00">
        <route edges="top-approaching closed-lane remerging-lane left-exit"/>
    </vehicle>
    <vehicle id="L2-AV-149" type="L2-AV-" depart="2682.00">
        <route edges="top-approaching bottom-exit"/>
    </vehicle>
    <vehicle id="L2-AV-152" type="L2-AV-" depart="2736.00">
        <route edges="top-approaching bottom-exit"/>
    </vehicle>
    <vehicle id="L2-AV-153" type="L2-AV-" depart="2754.00">
        <route edges="right-approaching closed-lane remerging-lane left-exit"/>
    </vehicle>
    <vehicle id="L2-AV-154" type="L2-AV-" depart="2772.00">
        <route edges="bottom-approaching closed-lane remerging-lane left-exit"/>
    </vehicle>
    <vehicle id="L2-AV-155" type="L2-AV-" depart="2790.00">
        <route edges="bottom-approaching top-exit"/>
    </vehicle>
    <vehicle id="L2-AV-156" type="L2-AV-" depart="2808.00">
        <route edges="left-long-approaching preparation left-short-approaching right-exit"/>
    </vehicle>
    <vehicle id="L2-AV-159" type="L2-AV-" depart="2862.00">
        <route edges="bottom-approaching top-exit"/>
    </vehicle>
    <vehicle id="L2-AV-160" type="L2-AV-" depart="2880.00">
        <route edges="bottom-approaching closed-lane remerging-lane left-exit"/>
    </vehicle>
    <vehicle id="L2-AV-161" type="L2-AV-" depart="2898.00">
        <route edges="top-approaching right-exit"/>
    </vehicle>
    <vehicle id="L2-AV-163" type="L2-AV-" depart="2934.00">
        <route edges="right-approaching bottom-exit"/>
    </vehicle>
    <vehicle id="L2-AV-164" type="L2-AV-" depart="2952.00">
        <route edges="right-approaching closed-lane remerging-lane left-exit"/>
    </vehicle>
    <vehicle id="L2-AV-165" type="L2-AV-" depart="2970.00">
        <route edges="top-approaching right-exit"/>
    </vehicle>
    <vehicle id="L2-AV-166" type="L2-AV-" depart="2988.00">
        <route edges="right-approaching top-exit"/>
    </vehicle>
    <vehicle id="L2-AV-167" type="L2-AV-Left-" depart="3006.00">
        <route edges="left-long-approaching preparation"/>
    </vehicle>
    <vehicle id="L2-AV-168" type="L2-AV-" depart="3024.00">
        <route edges="top-approaching bottom-exit"/>
    </vehicle>
    <vehicle id="L2-AV-170" type="L2-AV-" depart="3060.00">
        <route edges="top-approaching closed-lane remerging-lane left-exit"/>
    </vehicle>
    <vehicle id="L2-AV-171" type="L2-AV-Right-" depart="3078.00">
        <route edges="left-long-approaching preparation left-short-approaching bottom-exit"/>
    </vehicle>
    <vehicle id="L2-AV-172" type="L2-AV-Left-" depart="3096.00">
        <route edges="left-long-approaching preparation"/>
    </vehicle>
    <vehicle id="L2-AV-173" type="L2-AV-Right-" depart="3114.00">
        <route edges="left-long-approaching preparation left-short-approaching bottom-exit"/>
    </vehicle>
    <vehicle id="L2-AV-174" type="L2-AV-Right-" depart="3132.00">
        <route edges="left-long-approaching preparation left-short-approaching bottom-exit"/>
    </vehicle>
    <vehicle id="L2-AV-175" type="L2-AV-" depart="3150.00">
        <route edges="right-approaching top-exit"/>
    </vehicle>
    <vehicle id="L2-AV-176" type="L2-AV-" depart="3168.00">
        <route edges="top-approaching bottom-exit"/>
    </vehicle>
    <vehicle id="L2-AV-177" type="L2-AV-Right-" depart="3186.00">
        <route edges="left-long-approaching preparation left-short-approaching bottom-exit"/>
    </vehicle>
    <vehicle id="L2-AV-179" type="L2-AV-" depart="3222.00">
        <route edges="right-approaching top-exit"/>
    </vehicle>
    <vehicle id="L2-AV-180" type="L2-AV-" depart="3240.00">
        <route edges="right-approaching top-exit"/>
    </vehicle>
    <vehicle id="L2-AV-183" type="L2-AV-" depart="3294.00">
        <route edges="right-approaching top-exit"/>
    </vehicle>
    <vehicle id="L2-AV-184" type="L2-AV-" depart="3312.00">
        <route edges="right-approaching top-exit"/>
    </vehicle>
    <vehicle id="L2-AV-186" type="L2-AV-" depart="3348.00">
        <route edges="bottom-approaching right-exit"/>
    </vehicle>
    <vehicle id="L2-AV-187" type="L2-AV-" depart="3366.00">
        <route edges="right-approaching bottom-exit"/>
    </vehicle>
    <vehicle id="L2-AV-188" type="L2-AV-" depart="3384.00">
        <route edges="right-approaching bottom-exit"/>
    </vehicle>
    <vehicle id="L2-AV-189" type="L2-AV-" depart="3402.00">
        <route edges="right-approaching top-exit"/>
    </vehicle>
    <vehicle id="L2-AV-190" type="L2-AV-" depart="3420.00">
        <route edges="bottom-approaching top-exit"/>
    </vehicle>
    <vehicle id="L2-AV-191" type="L2-AV-" depart="3438.00">
        <route edges="right-approaching bottom-exit"/>
    </vehicle>
    <vehicle id="L2-AV-192" type="L2-AV-Right-" depart="3456.00">
        <route edges="left-long-approaching preparation left-short-approaching bottom-exit"/>
    </vehicle>
    <vehicle id="L2-AV-193" type="L2-AV-" depart="3474.00">
        <route edges="right-approaching top-exit"/>
    </vehicle>
    <vehicle id="L2-AV-195" type="L2-AV-" depart="3510.00">
        <route edges="right-approaching top-exit"/>
    </vehicle>
    <vehicle id="L2-AV-196" type="L2-AV-" depart="3528.00">
        <route edges="right-approaching closed-lane remerging-lane left-exit"/>
    </vehicle>
    <vehicle id="L2-AV-197" type="L2-AV-" depart="3546.00">
        <route edges="bottom-approaching right-exit"/>
    </vehicle>
    <vehicle id="L2-AV-198" type="L2-AV-Left-" depart="3564.00">
        <route edges="left-long-approaching preparation"/>
    </vehicle>
</routes>