<?xml version="1.0" ?><!-- generated on 03/24/21 21:11:28 by Eclipse SUMO duarouter Version 1.8.0
<configuration xmlns:xsi="http://www.w3.org/2001/XMLSchema-instance" xsi:noNamespaceSchemaLocation="http://sumo.dlr.de/xsd/duarouterConfiguration.xsd">

    <input>
        <net-file value="Roadworks/RoadworksIntersection.net.xml"/>
        <route-files value="trips.trips.xml"/>
    </input>

    <output>
        <output-file value="Roadworks/BaselinePenetration2/Route-Files/L2-CV-Route.rou.xml"/>
        <alternatives-output value="Roadworks/BaselinePenetration2/Route-Files/L2-CV-Route.rou.alt.xml"/>
    </output>

    <time>
        <begin value="0"/>
        <end value="3600"/>
    </time>

    <report>
        <no-warnings value="true"/>
        <ignore-errors value="true"/>
        <no-step-log value="true"/>
    </report>

</configuration>
--><routes xmlns:xsi="http://www.w3.org/2001/XMLSchema-instance" xsi:noNamespaceSchemaLocation="http://sumo.dlr.de/xsd/routes_file.xsd">
    <vehicle id="L2-CV-0" type="L2-CV-Right-" depart="0.00">
        <route edges="left-long-approaching preparation left-short-approaching bottom-exit"/>
    </vehicle>
    <vehicle id="L2-CV-1" type="L2-CV-" depart="9.00">
        <route edges="right-approaching bottom-exit"/>
    </vehicle>
    <vehicle id="L2-CV-2" type="L2-CV-" depart="18.00">
        <route edges="right-approaching closed-lane remerging-lane left-exit"/>
    </vehicle>
    <vehicle id="L2-CV-3" type="L2-CV-" depart="27.00">
        <route edges="bottom-approaching right-exit"/>
    </vehicle>
    <vehicle id="L2-CV-4" type="L2-CV-" depart="36.00">
        <route edges="bottom-approaching closed-lane remerging-lane left-exit"/>
    </vehicle>
    <vehicle id="L2-CV-6" type="L2-CV-Left-" depart="54.00">
        <route edges="left-long-approaching preparation"/>
    </vehicle>
    <vehicle id="L2-CV-8" type="L2-CV-" depart="72.00">
        <route edges="right-approaching top-exit"/>
    </vehicle>
    <vehicle id="L2-CV-9" type="L2-CV-" depart="81.00">
        <route edges="right-approaching closed-lane remerging-lane left-exit"/>
    </vehicle>
    <vehicle id="L2-CV-10" type="L2-CV-" depart="90.00">
        <route edges="top-approaching bottom-exit"/>
    </vehicle>
    <vehicle id="L2-CV-11" type="L2-CV-" depart="99.00">
        <route edges="top-approaching closed-lane remerging-lane left-exit"/>
    </vehicle>
    <vehicle id="L2-CV-13" type="L2-CV-Left-" depart="117.00">
        <route edges="left-long-approaching preparation"/>
    </vehicle>
    <vehicle id="L2-CV-14" type="L2-CV-" depart="126.00">
        <route edges="bottom-approaching right-exit"/>
    </vehicle>
    <vehicle id="L2-CV-15" type="L2-CV-" depart="135.00">
        <route edges="right-approaching closed-lane remerging-lane left-exit"/>
    </vehicle>
    <vehicle id="L2-CV-16" type="L2-CV-" depart="144.00">
        <route edges="right-approaching bottom-exit"/>
    </vehicle>
    <vehicle id="L2-CV-18" type="L2-CV-" depart="162.00">
        <route edges="right-approaching closed-lane remerging-lane left-exit"/>
    </vehicle>
    <vehicle id="L2-CV-19" type="L2-CV-" depart="171.00">
        <route edges="left-long-approaching preparation left-short-approaching right-exit"/>
    </vehicle>
    <vehicle id="L2-CV-21" type="L2-CV-" depart="189.00">
        <route edges="top-approaching right-exit"/>
    </vehicle>
    <vehicle id="L2-CV-22" type="L2-CV-" depart="198.00">
        <route edges="bottom-approaching right-exit"/>
    </vehicle>
    <vehicle id="L2-CV-23" type="L2-CV-" depart="207.00">
        <route edges="right-approaching top-exit"/>
    </vehicle>
    <vehicle id="L2-CV-24" type="L2-CV-" depart="216.00">
        <route edges="right-approaching closed-lane remerging-lane left-exit"/>
    </vehicle>
    <vehicle id="L2-CV-25" type="L2-CV-" depart="225.00">
        <route edges="top-approaching bottom-exit"/>
    </vehicle>
    <vehicle id="L2-CV-26" type="L2-CV-Left-" depart="234.00">
        <route edges="left-long-approaching preparation"/>
    </vehicle>
    <vehicle id="L2-CV-27" type="L2-CV-" depart="243.00">
        <route edges="bottom-approaching closed-lane remerging-lane left-exit"/>
    </vehicle>
    <vehicle id="L2-CV-28" type="L2-CV-" depart="252.00">
        <route edges="bottom-approaching right-exit"/>
    </vehicle>
    <vehicle id="L2-CV-29" type="L2-CV-" depart="261.00">
        <route edges="top-approaching right-exit"/>
    </vehicle>
    <vehicle id="L2-CV-30" type="L2-CV-" depart="270.00">
        <route edges="top-approaching closed-lane remerging-lane left-exit"/>
    </vehicle>
    <vehicle id="L2-CV-32" type="L2-CV-" depart="288.00">
        <route edges="right-approaching closed-lane remerging-lane left-exit"/>
    </vehicle>
    <vehicle id="L2-CV-34" type="L2-CV-" depart="306.00">
        <route edges="left-long-approaching preparation left-short-approaching right-exit"/>
    </vehicle>
    <vehicle id="L2-CV-35" type="L2-CV-" depart="315.00">
        <route edges="bottom-approaching right-exit"/>
    </vehicle>
    <vehicle id="L2-CV-36" type="L2-CV-" depart="324.00">
        <route edges="right-approaching top-exit"/>
    </vehicle>
    <vehicle id="L2-CV-37" type="L2-CV-" depart="333.00">
        <route edges="top-approaching closed-lane remerging-lane left-exit"/>
    </vehicle>
    <vehicle id="L2-CV-38" type="L2-CV-" depart="342.00">
        <route edges="left-long-approaching preparation left-short-approaching right-exit"/>
    </vehicle>
    <vehicle id="L2-CV-39" type="L2-CV-" depart="351.00">
        <route edges="bottom-approaching closed-lane remerging-lane left-exit"/>
    </vehicle>
    <vehicle id="L2-CV-41" type="L2-CV-" depart="369.00">
        <route edges="bottom-approaching top-exit"/>
    </vehicle>
    <vehicle id="L2-CV-43" type="L2-CV-Left-" depart="387.00">
        <route edges="left-long-approaching preparation"/>
    </vehicle>
    <vehicle id="L2-CV-44" type="L2-CV-" depart="396.00">
        <route edges="bottom-approaching closed-lane remerging-lane left-exit"/>
    </vehicle>
    <vehicle id="L2-CV-45" type="L2-CV-" depart="405.00">
        <route edges="right-approaching top-exit"/>
    </vehicle>
    <vehicle id="L2-CV-48" type="L2-CV-Left-" depart="432.00">
        <route edges="left-long-approaching preparation"/>
    </vehicle>
    <vehicle id="L2-CV-49" type="L2-CV-" depart="441.00">
        <route edges="top-approaching bottom-exit"/>
    </vehicle>
    <vehicle id="L2-CV-51" type="L2-CV-" depart="459.00">
        <route edges="bottom-approaching closed-lane remerging-lane left-exit"/>
    </vehicle>
    <vehicle id="L2-CV-52" type="L2-CV-" depart="468.00">
        <route edges="right-approaching closed-lane remerging-lane left-exit"/>
    </vehicle>
    <vehicle id="L2-CV-53" type="L2-CV-" depart="477.00">
        <route edges="bottom-approaching closed-lane remerging-lane left-exit"/>
    </vehicle>
    <vehicle id="L2-CV-54" type="L2-CV-" depart="486.00">
        <route edges="left-long-approaching preparation left-short-approaching right-exit"/>
    </vehicle>
    <vehicle id="L2-CV-55" type="L2-CV-" depart="495.00">
        <route edges="top-approaching right-exit"/>
    </vehicle>
    <vehicle id="L2-CV-57" type="L2-CV-" depart="513.00">
        <route edges="right-approaching bottom-exit"/>
    </vehicle>
    <vehicle id="L2-CV-61" type="L2-CV-" depart="549.00">
        <route edges="bottom-approaching right-exit"/>
    </vehicle>
    <vehicle id="L2-CV-64" type="L2-CV-Right-" depart="576.00">
        <route edges="left-long-approaching preparation left-short-approaching bottom-exit"/>
    </vehicle>
    <vehicle id="L2-CV-66" type="L2-CV-" depart="594.00">
        <route edges="bottom-approaching closed-lane remerging-lane left-exit"/>
    </vehicle>
    <vehicle id="L2-CV-67" type="L2-CV-" depart="603.00">
        <route edges="bottom-approaching top-exit"/>
    </vehicle>
    <vehicle id="L2-CV-68" type="L2-CV-" depart="612.00">
        <route edges="right-approaching bottom-exit"/>
    </vehicle>
    <vehicle id="L2-CV-70" type="L2-CV-Right-" depart="630.00">
        <route edges="left-long-approaching preparation left-short-approaching bottom-exit"/>
    </vehicle>
    <vehicle id="L2-CV-75" type="L2-CV-" depart="675.00">
        <route edges="top-approaching bottom-exit"/>
    </vehicle>
    <vehicle id="L2-CV-76" type="L2-CV-" depart="684.00">
        <route edges="bottom-approaching top-exit"/>
    </vehicle>
    <vehicle id="L2-CV-77" type="L2-CV-" depart="693.00">
        <route edges="right-approaching bottom-exit"/>
    </vehicle>
    <vehicle id="L2-CV-78" type="L2-CV-" depart="702.00">
        <route edges="right-approaching bottom-exit"/>
    </vehicle>
    <vehicle id="L2-CV-79" type="L2-CV-" depart="711.00">
        <route edges="right-approaching top-exit"/>
    </vehicle>
    <vehicle id="L2-CV-80" type="L2-CV-" depart="720.00">
        <route edges="top-approaching right-exit"/>
    </vehicle>
    <vehicle id="L2-CV-82" type="L2-CV-" depart="738.00">
        <route edges="bottom-approaching top-exit"/>
    </vehicle>
    <vehicle id="L2-CV-83" type="L2-CV-" depart="747.00">
        <route edges="right-approaching top-exit"/>
    </vehicle>
    <vehicle id="L2-CV-84" type="L2-CV-Right-" depart="756.00">
        <route edges="left-long-approaching preparation left-short-approaching bottom-exit"/>
    </vehicle>
    <vehicle id="L2-CV-87" type="L2-CV-" depart="783.00">
        <route edges="top-approaching right-exit"/>
    </vehicle>
    <vehicle id="L2-CV-88" type="L2-CV-" depart="792.00">
        <route edges="bottom-approaching right-exit"/>
    </vehicle>
    <vehicle id="L2-CV-89" type="L2-CV-Right-" depart="801.00">
        <route edges="left-long-approaching preparation left-short-approaching bottom-exit"/>
    </vehicle>
    <vehicle id="L2-CV-90" type="L2-CV-" depart="810.00">
        <route edges="bottom-approaching closed-lane remerging-lane left-exit"/>
    </vehicle>
    <vehicle id="L2-CV-91" type="L2-CV-" depart="819.00">
        <route edges="left-long-approaching preparation left-short-approaching right-exit"/>
    </vehicle>
    <vehicle id="L2-CV-92" type="L2-CV-" depart="828.00">
        <route edges="top-approaching closed-lane remerging-lane left-exit"/>
    </vehicle>
    <vehicle id="L2-CV-94" type="L2-CV-" depart="846.00">
        <route edges="top-approaching closed-lane remerging-lane left-exit"/>
    </vehicle>
    <vehicle id="L2-CV-97" type="L2-CV-" depart="873.00">
        <route edges="right-approaching top-exit"/>
    </vehicle>
    <vehicle id="L2-CV-98" type="L2-CV-" depart="882.00">
        <route edges="top-approaching closed-lane remerging-lane left-exit"/>
    </vehicle>
    <vehicle id="L2-CV-99" type="L2-CV-" depart="891.00">
        <route edges="right-approaching top-exit"/>
    </vehicle>
    <vehicle id="L2-CV-100" type="L2-CV-" depart="900.00">
        <route edges="bottom-approaching right-exit"/>
    </vehicle>
    <vehicle id="L2-CV-102" type="L2-CV-" depart="918.00">
        <route edges="right-approaching closed-lane remerging-lane left-exit"/>
    </vehicle>
    <vehicle id="L2-CV-103" type="L2-CV-" depart="927.00">
        <route edges="bottom-approaching top-exit"/>
    </vehicle>
    <vehicle id="L2-CV-104" type="L2-CV-Left-" depart="936.00">
        <route edges="left-long-approaching preparation"/>
    </vehicle>
    <vehicle id="L2-CV-105" type="L2-CV-" depart="945.00">
        <route edges="top-approaching closed-lane remerging-lane left-exit"/>
    </vehicle>
    <vehicle id="L2-CV-106" type="L2-CV-Left-" depart="954.00">
        <route edges="left-long-approaching preparation"/>
    </vehicle>
    <vehicle id="L2-CV-107" type="L2-CV-" depart="963.00">
        <route edges="right-approaching bottom-exit"/>
    </vehicle>
    <vehicle id="L2-CV-110" type="L2-CV-" depart="990.00">
        <route edges="bottom-approaching top-exit"/>
    </vehicle>
    <vehicle id="L2-CV-111" type="L2-CV-" depart="999.00">
        <route edges="top-approaching right-exit"/>
    </vehicle>
    <vehicle id="L2-CV-112" type="L2-CV-" depart="1008.00">
        <route edges="left-long-approaching preparation left-short-approaching right-exit"/>
    </vehicle>
    <vehicle id="L2-CV-114" type="L2-CV-" depart="1026.00">
        <route edges="top-approaching right-exit"/>
    </vehicle>
    <vehicle id="L2-CV-115" type="L2-CV-" depart="1035.00">
        <route edges="right-approaching top-exit"/>
    </vehicle>
    <vehicle id="L2-CV-116" type="L2-CV-Left-" depart="1044.00">
        <route edges="left-long-approaching preparation"/>
    </vehicle>
    <vehicle id="L2-CV-117" type="L2-CV-" depart="1053.00">
        <route edges="top-approaching bottom-exit"/>
    </vehicle>
    <vehicle id="L2-CV-119" type="L2-CV-" depart="1071.00">
        <route edges="bottom-approaching right-exit"/>
    </vehicle>
    <vehicle id="L2-CV-121" type="L2-CV-" depart="1089.00">
        <route edges="bottom-approaching top-exit"/>
    </vehicle>
    <vehicle id="L2-CV-123" type="L2-CV-" depart="1107.00">
        <route edges="right-approaching top-exit"/>
    </vehicle>
    <vehicle id="L2-CV-124" type="L2-CV-Left-" depart="1116.00">
        <route edges="left-long-approaching preparation"/>
    </vehicle>
    <vehicle id="L2-CV-125" type="L2-CV-" depart="1125.00">
        <route edges="left-long-approaching preparation left-short-approaching right-exit"/>
    </vehicle>
    <vehicle id="L2-CV-126" type="L2-CV-" depart="1134.00">
        <route edges="right-approaching bottom-exit"/>
    </vehicle>
    <vehicle id="L2-CV-127" type="L2-CV-Right-" depart="1143.00">
        <route edges="left-long-approaching preparation left-short-approaching bottom-exit"/>
    </vehicle>
    <vehicle id="L2-CV-128" type="L2-CV-" depart="1152.00">
        <route edges="bottom-approaching top-exit"/>
    </vehicle>
    <vehicle id="L2-CV-129" type="L2-CV-" depart="1161.00">
        <route edges="bottom-approaching closed-lane remerging-lane left-exit"/>
    </vehicle>
    <vehicle id="L2-CV-131" type="L2-CV-" depart="1179.00">
        <route edges="left-long-approaching preparation left-short-approaching right-exit"/>
    </vehicle>
    <vehicle id="L2-CV-132" type="L2-CV-" depart="1188.00">
        <route edges="right-approaching top-exit"/>
    </vehicle>
    <vehicle id="L2-CV-133" type="L2-CV-" depart="1197.00">
        <route edges="bottom-approaching right-exit"/>
    </vehicle>
    <vehicle id="L2-CV-134" type="L2-CV-" depart="1206.00">
        <route edges="closed-lane remerging-lane left-exit"/>
    </vehicle>
    <vehicle id="L2-CV-135" type="L2-CV-" depart="1215.00">
        <route edges="top-approaching right-exit"/>
    </vehicle>
    <vehicle id="L2-CV-136" type="L2-CV-" depart="1224.00">
        <route edges="right-approaching top-exit"/>
    </vehicle>
    <vehicle id="L2-CV-137" type="L2-CV-" depart="1233.00">
        <route edges="top-approaching closed-lane remerging-lane left-exit"/>
    </vehicle>
    <vehicle id="L2-CV-140" type="L2-CV-" depart="1260.00">
        <route edges="left-long-approaching preparation left-short-approaching right-exit"/>
    </vehicle>
    <vehicle id="L2-CV-141" type="L2-CV-Left-" depart="1269.00">
        <route edges="left-long-approaching preparation"/>
    </vehicle>
    <vehicle id="L2-CV-142" type="L2-CV-" depart="1278.00">
        <route edges="right-approaching top-exit"/>
    </vehicle>
    <vehicle id="L2-CV-143" type="L2-CV-" depart="1287.00">
        <route edges="top-approaching closed-lane remerging-lane left-exit"/>
    </vehicle>
    <vehicle id="L2-CV-144" type="L2-CV-" depart="1296.00">
        <route edges="right-approaching top-exit"/>
    </vehicle>
    <vehicle id="L2-CV-145" type="L2-CV-" depart="1305.00">
        <route edges="top-approaching bottom-exit"/>
    </vehicle>
    <vehicle id="L2-CV-146" type="L2-CV-" depart="1314.00">
        <route edges="bottom-approaching closed-lane remerging-lane left-exit"/>
    </vehicle>
    <vehicle id="L2-CV-148" type="L2-CV-" depart="1332.00">
        <route edges="bottom-approaching right-exit"/>
    </vehicle>
    <vehicle id="L2-CV-150" type="L2-CV-" depart="1350.00">
        <route edges="bottom-approaching right-exit"/>
    </vehicle>
    <vehicle id="L2-CV-151" type="L2-CV-" depart="1359.00">
        <route edges="right-approaching bottom-exit"/>
    </vehicle>
    <vehicle id="L2-CV-153" type="L2-CV-" depart="1377.00">
        <route edges="bottom-approaching top-exit"/>
    </vehicle>
    <vehicle id="L2-CV-156" type="L2-CV-" depart="1404.00">
        <route edges="bottom-approaching closed-lane remerging-lane left-exit"/>
    </vehicle>
    <vehicle id="L2-CV-157" type="L2-CV-" depart="1413.00">
        <route edges="right-approaching closed-lane remerging-lane left-exit"/>
    </vehicle>
    <vehicle id="L2-CV-158" type="L2-CV-" depart="1422.00">
        <route edges="bottom-approaching closed-lane remerging-lane left-exit"/>
    </vehicle>
    <vehicle id="L2-CV-159" type="L2-CV-" depart="1431.00">
        <route edges="right-approaching bottom-exit"/>
    </vehicle>
    <vehicle id="L2-CV-160" type="L2-CV-" depart="1440.00">
        <route edges="right-approaching closed-lane remerging-lane left-exit"/>
    </vehicle>
    <vehicle id="L2-CV-161" type="L2-CV-" depart="1449.00">
        <route edges="bottom-approaching closed-lane remerging-lane left-exit"/>
    </vehicle>
    <vehicle id="L2-CV-163" type="L2-CV-" depart="1467.00">
        <route edges="bottom-approaching top-exit"/>
    </vehicle>
    <vehicle id="L2-CV-165" type="L2-CV-" depart="1485.00">
        <route edges="bottom-approaching closed-lane remerging-lane left-exit"/>
    </vehicle>
    <vehicle id="L2-CV-166" type="L2-CV-" depart="1494.00">
        <route edges="bottom-approaching top-exit"/>
    </vehicle>
    <vehicle id="L2-CV-167" type="L2-CV-Right-" depart="1503.00">
        <route edges="left-long-approaching preparation left-short-approaching bottom-exit"/>
    </vehicle>
    <vehicle id="L2-CV-168" type="L2-CV-Left-" depart="1512.00">
        <route edges="left-long-approaching preparation"/>
    </vehicle>
    <vehicle id="L2-CV-169" type="L2-CV-" depart="1521.00">
        <route edges="top-approaching closed-lane remerging-lane left-exit"/>
    </vehicle>
    <vehicle id="L2-CV-170" type="L2-CV-" depart="1530.00">
        <route edges="bottom-approaching top-exit"/>
    </vehicle>
    <vehicle id="L2-CV-173" type="L2-CV-" depart="1557.00">
        <route edges="right-approaching closed-lane remerging-lane left-exit"/>
    </vehicle>
    <vehicle id="L2-CV-174" type="L2-CV-" depart="1566.00">
        <route edges="bottom-approaching top-exit"/>
    </vehicle>
    <vehicle id="L2-CV-175" type="L2-CV-" depart="1575.00">
        <route edges="right-approaching top-exit"/>
    </vehicle>
    <vehicle id="L2-CV-176" type="L2-CV-" depart="1584.00">
        <route edges="bottom-approaching top-exit"/>
    </vehicle>
    <vehicle id="L2-CV-177" type="L2-CV-" depart="1593.00">
        <route edges="bottom-approaching top-exit"/>
    </vehicle>
    <vehicle id="L2-CV-179" type="L2-CV-" depart="1611.00">
        <route edges="right-approaching top-exit"/>
    </vehicle>
    <vehicle id="L2-CV-180" type="L2-CV-Right-" depart="1620.00">
        <route edges="left-long-approaching preparation left-short-approaching bottom-exit"/>
    </vehicle>
    <vehicle id="L2-CV-181" type="L2-CV-" depart="1629.00">
        <route edges="right-approaching bottom-exit"/>
    </vehicle>
    <vehicle id="L2-CV-185" type="L2-CV-" depart="1665.00">
        <route edges="top-approaching closed-lane remerging-lane left-exit"/>
    </vehicle>
    <vehicle id="L2-CV-186" type="L2-CV-Right-" depart="1674.00">
        <route edges="left-long-approaching preparation left-short-approaching bottom-exit"/>
    </vehicle>
    <vehicle id="L2-CV-187" type="L2-CV-Right-" depart="1683.00">
        <route edges="left-long-approaching preparation left-short-approaching bottom-exit"/>
    </vehicle>
    <vehicle id="L2-CV-188" type="L2-CV-Right-" depart="1692.00">
        <route edges="left-long-approaching preparation left-short-approaching bottom-exit"/>
    </vehicle>
    <vehicle id="L2-CV-190" type="L2-CV-" depart="1710.00">
        <route edges="bottom-approaching closed-lane remerging-lane left-exit"/>
    </vehicle>
    <vehicle id="L2-CV-191" type="L2-CV-" depart="1719.00">
        <route edges="top-approaching bottom-exit"/>
    </vehicle>
    <vehicle id="L2-CV-192" type="L2-CV-" depart="1728.00">
        <route edges="top-approaching closed-lane remerging-lane left-exit"/>
    </vehicle>
    <vehicle id="L2-CV-193" type="L2-CV-Left-" depart="1737.00">
        <route edges="left-long-approaching preparation"/>
    </vehicle>
    <vehicle id="L2-CV-194" type="L2-CV-" depart="1746.00">
        <route edges="left-long-approaching preparation left-short-approaching right-exit"/>
    </vehicle>
    <vehicle id="L2-CV-195" type="L2-CV-" depart="1755.00">
        <route edges="right-approaching top-exit"/>
    </vehicle>
    <vehicle id="L2-CV-196" type="L2-CV-Left-" depart="1764.00">
        <route edges="left-long-approaching preparation"/>
    </vehicle>
    <vehicle id="L2-CV-200" type="L2-CV-" depart="1800.00">
        <route edges="bottom-approaching right-exit"/>
    </vehicle>
    <vehicle id="L2-CV-201" type="L2-CV-Right-" depart="1809.00">
        <route edges="left-long-approaching preparation left-short-approaching bottom-exit"/>
    </vehicle>
    <vehicle id="L2-CV-202" type="L2-CV-" depart="1818.00">
        <route edges="bottom-approaching top-exit"/>
    </vehicle>
    <vehicle id="L2-CV-203" type="L2-CV-" depart="1827.00">
        <route edges="top-approaching right-exit"/>
    </vehicle>
    <vehicle id="L2-CV-204" type="L2-CV-Right-" depart="1836.00">
        <route edges="left-long-approaching preparation left-short-approaching bottom-exit"/>
    </vehicle>
    <vehicle id="L2-CV-206" type="L2-CV-" depart="1854.00">
        <route edges="bottom-approaching closed-lane remerging-lane left-exit"/>
    </vehicle>
    <vehicle id="L2-CV-207" type="L2-CV-Left-" depart="1863.00">
        <route edges="left-long-approaching preparation"/>
    </vehicle>
    <vehicle id="L2-CV-208" type="L2-CV-" depart="1872.00">
        <route edges="top-approaching right-exit"/>
    </vehicle>
    <vehicle id="L2-CV-209" type="L2-CV-" depart="1881.00">
        <route edges="bottom-approaching top-exit"/>
    </vehicle>
    <vehicle id="L2-CV-211" type="L2-CV-" depart="1899.00">
        <route edges="bottom-approaching closed-lane remerging-lane left-exit"/>
    </vehicle>
    <vehicle id="L2-CV-212" type="L2-CV-" depart="1908.00">
        <route edges="left-long-approaching preparation left-short-approaching right-exit"/>
    </vehicle>
    <vehicle id="L2-CV-213" type="L2-CV-" depart="1917.00">
        <route edges="bottom-approaching right-exit"/>
    </vehicle>
    <vehicle id="L2-CV-214" type="L2-CV-" depart="1926.00">
        <route edges="bottom-approaching closed-lane remerging-lane left-exit"/>
    </vehicle>
    <vehicle id="L2-CV-215" type="L2-CV-" depart="1935.00">
        <route edges="bottom-approaching closed-lane remerging-lane left-exit"/>
    </vehicle>
    <vehicle id="L2-CV-217" type="L2-CV-Right-" depart="1953.00">
        <route edges="left-long-approaching preparation left-short-approaching bottom-exit"/>
    </vehicle>
    <vehicle id="L2-CV-220" type="L2-CV-" depart="1980.00">
        <route edges="right-approaching top-exit"/>
    </vehicle>
    <vehicle id="L2-CV-222" type="L2-CV-" depart="1998.00">
        <route edges="top-approaching bottom-exit"/>
    </vehicle>
    <vehicle id="L2-CV-224" type="L2-CV-" depart="2016.00">
        <route edges="bottom-approaching top-exit"/>
    </vehicle>
    <vehicle id="L2-CV-225" type="L2-CV-" depart="2025.00">
        <route edges="top-approaching right-exit"/>
    </vehicle>
    <vehicle id="L2-CV-226" type="L2-CV-" depart="2034.00">
        <route edges="right-approaching top-exit"/>
    </vehicle>
    <vehicle id="L2-CV-227" type="L2-CV-" depart="2043.00">
        <route edges="bottom-approaching right-exit"/>
    </vehicle>
    <vehicle id="L2-CV-228" type="L2-CV-" depart="2052.00">
        <route edges="right-approaching top-exit"/>
    </vehicle>
    <vehicle id="L2-CV-230" type="L2-CV-" depart="2070.00">
        <route edges="right-approaching top-exit"/>
    </vehicle>
    <vehicle id="L2-CV-233" type="L2-CV-" depart="2097.00">
        <route edges="bottom-approaching closed-lane remerging-lane left-exit"/>
    </vehicle>
    <vehicle id="L2-CV-234" type="L2-CV-" depart="2106.00">
        <route edges="bottom-approaching top-exit"/>
    </vehicle>
    <vehicle id="L2-CV-237" type="L2-CV-Right-" depart="2133.00">
        <route edges="left-long-approaching preparation left-short-approaching bottom-exit"/>
    </vehicle>
    <vehicle id="L2-CV-238" type="L2-CV-" depart="2142.00">
        <route edges="top-approaching right-exit"/>
    </vehicle>
    <vehicle id="L2-CV-239" type="L2-CV-" depart="2151.00">
        <route edges="left-long-approaching preparation left-short-approaching right-exit"/>
    </vehicle>
    <vehicle id="L2-CV-240" type="L2-CV-" depart="2160.00">
        <route edges="right-approaching bottom-exit"/>
    </vehicle>
    <vehicle id="L2-CV-241" type="L2-CV-" depart="2169.00">
        <route edges="right-approaching closed-lane remerging-lane left-exit"/>
    </vehicle>
    <vehicle id="L2-CV-242" type="L2-CV-" depart="2178.00">
        <route edges="bottom-approaching closed-lane remerging-lane left-exit"/>
    </vehicle>
    <vehicle id="L2-CV-243" type="L2-CV-" depart="2187.00">
        <route edges="right-approaching bottom-exit"/>
    </vehicle>
    <vehicle id="L2-CV-244" type="L2-CV-" depart="2196.00">
        <route edges="right-approaching top-exit"/>
    </vehicle>
    <vehicle id="L2-CV-246" type="L2-CV-" depart="2214.00">
        <route edges="left-long-approaching preparation left-short-approaching right-exit"/>
    </vehicle>
    <vehicle id="L2-CV-247" type="L2-CV-" depart="2223.00">
        <route edges="top-approaching right-exit"/>
    </vehicle>
    <vehicle id="L2-CV-248" type="L2-CV-" depart="2232.00">
        <route edges="right-approaching bottom-exit"/>
    </vehicle>
    <vehicle id="L2-CV-249" type="L2-CV-" depart="2241.00">
        <route edges="bottom-approaching closed-lane remerging-lane left-exit"/>
    </vehicle>
    <vehicle id="L2-CV-250" type="L2-CV-" depart="2250.00">
        <route edges="right-approaching closed-lane remerging-lane left-exit"/>
    </vehicle>
    <vehicle id="L2-CV-251" type="L2-CV-" depart="2259.00">
        <route edges="right-approaching bottom-exit"/>
    </vehicle>
    <vehicle id="L2-CV-252" type="L2-CV-" depart="2268.00">
        <route edges="bottom-approaching closed-lane remerging-lane left-exit"/>
    </vehicle>
    <vehicle id="L2-CV-254" type="L2-CV-" depart="2286.00">
        <route edges="right-approaching closed-lane remerging-lane left-exit"/>
    </vehicle>
    <vehicle id="L2-CV-255" type="L2-CV-" depart="2295.00">
        <route edges="right-approaching closed-lane remerging-lane left-exit"/>
    </vehicle>
    <vehicle id="L2-CV-256" type="L2-CV-Right-" depart="2304.00">
        <route edges="left-long-approaching preparation left-short-approaching bottom-exit"/>
    </vehicle>
    <vehicle id="L2-CV-257" type="L2-CV-" depart="2313.00">
        <route edges="top-approaching bottom-exit"/>
    </vehicle>
    <vehicle id="L2-CV-259" type="L2-CV-" depart="2331.00">
        <route edges="bottom-approaching closed-lane remerging-lane left-exit"/>
    </vehicle>
    <vehicle id="L2-CV-262" type="L2-CV-" depart="2358.00">
        <route edges="bottom-approaching top-exit"/>
    </vehicle>
    <vehicle id="L2-CV-263" type="L2-CV-" depart="2367.00">
        <route edges="bottom-approaching right-exit"/>
    </vehicle>
    <vehicle id="L2-CV-264" type="L2-CV-" depart="2376.00">
        <route edges="bottom-approaching right-exit"/>
    </vehicle>
    <vehicle id="L2-CV-265" type="L2-CV-" depart="2385.00">
        <route edges="top-approaching bottom-exit"/>
    </vehicle>
    <vehicle id="L2-CV-266" type="L2-CV-" depart="2394.00">
        <route edges="top-approaching right-exit"/>
    </vehicle>
    <vehicle id="L2-CV-267" type="L2-CV-" depart="2403.00">
        <route edges="top-approaching right-exit"/>
    </vehicle>
    <vehicle id="L2-CV-268" type="L2-CV-" depart="2412.00">
        <route edges="bottom-approaching top-exit"/>
    </vehicle>
    <vehicle id="L2-CV-269" type="L2-CV-Right-" depart="2421.00">
        <route edges="left-long-approaching preparation left-short-approaching bottom-exit"/>
    </vehicle>
    <vehicle id="L2-CV-270" type="L2-CV-" depart="2430.00">
        <route edges="bottom-approaching closed-lane remerging-lane left-exit"/>
    </vehicle>
    <vehicle id="L2-CV-272" type="L2-CV-" depart="2448.00">
        <route edges="bottom-approaching closed-lane remerging-lane left-exit"/>
    </vehicle>
    <vehicle id="L2-CV-273" type="L2-CV-Left-" depart="2457.00">
        <route edges="left-long-approaching preparation"/>
    </vehicle>
    <vehicle id="L2-CV-274" type="L2-CV-" depart="2466.00">
        <route edges="bottom-approaching right-exit"/>
    </vehicle>
    <vehicle id="L2-CV-275" type="L2-CV-" depart="2475.00">
        <route edges="top-approaching bottom-exit"/>
    </vehicle>
    <vehicle id="L2-CV-276" type="L2-CV-" depart="2484.00">
        <route edges="top-approaching right-exit"/>
    </vehicle>
    <vehicle id="L2-CV-277" type="L2-CV-" depart="2493.00">
        <route edges="top-approaching closed-lane remerging-lane left-exit"/>
    </vehicle>
    <vehicle id="L2-CV-279" type="L2-CV-" depart="2511.00">
        <route edges="top-approaching right-exit"/>
    </vehicle>
    <vehicle id="L2-CV-281" type="L2-CV-Right-" depart="2529.00">