<?xml version="1.0" ?><!-- generated on 03/30/21 22:07:51 by Eclipse SUMO duarouter Version 1.8.0
<configuration xmlns:xsi="http://www.w3.org/2001/XMLSchema-instance" xsi:noNamespaceSchemaLocation="http://sumo.dlr.de/xsd/duarouterConfiguration.xsd">

    <input>
        <net-file value="Roadworks/RoadworksIntersection.net.xml"/>
        <route-files value="trips.trips.xml"/>
    </input>

    <output>
        <output-file value="Roadworks/BaselinePenetration2/Route-Files/L2-CV-Route.rou.xml"/>
        <alternatives-output value="Roadworks/BaselinePenetration2/Route-Files/L2-CV-Route.rou.alt.xml"/>
    </output>

    <time>
        <begin value="0"/>
        <end value="3600"/>
    </time>

    <report>
        <no-warnings value="true"/>
        <ignore-errors value="true"/>
        <no-step-log value="true"/>
    </report>

</configuration>
--><routes xmlns:xsi="http://www.w3.org/2001/XMLSchema-instance" xsi:noNamespaceSchemaLocation="http://sumo.dlr.de/xsd/routes_file.xsd">
    <vehicle id="L2-CV-0" type="L2-CV-" depart="0.00">
        <route edges="bottom-approaching right-exit"/>
    </vehicle>
    <vehicle id="L2-CV-1" type="L2-CV-" depart="4.75">
        <route edges="left-long-approaching preparation left-short-approaching right-exit"/>
    </vehicle>
    <vehicle id="L2-CV-2" type="L2-CV-" depart="9.50">
        <route edges="right-approaching bottom-exit"/>
    </vehicle>
    <vehicle id="L2-CV-3" type="L2-CV-" depart="14.25">
        <route edges="bottom-approaching top-exit"/>
    </vehicle>
    <vehicle id="L2-CV-4" type="L2-CV-Right-" depart="19.00">
        <route edges="left-long-approaching preparation left-short-approaching bottom-exit"/>
    </vehicle>
    <vehicle id="L2-CV-5" type="L2-CV-" depart="23.75">
        <route edges="top-approaching closed-lane remerging-lane left-exit"/>
    </vehicle>
    <vehicle id="L2-CV-6" type="L2-CV-" depart="28.50">
        <route edges="top-approaching closed-lane remerging-lane left-exit"/>
    </vehicle>
    <vehicle id="L2-CV-7" type="L2-CV-" depart="33.25">
        <route edges="right-approaching bottom-exit"/>
    </vehicle>
    <vehicle id="L2-CV-8" type="L2-CV-" depart="38.00">
        <route edges="right-approaching top-exit"/>
    </vehicle>
    <vehicle id="L2-CV-10" type="L2-CV-" depart="47.50">
        <route edges="right-approaching bottom-exit"/>
    </vehicle>
    <vehicle id="L2-CV-11" type="L2-CV-" depart="52.25">
        <route edges="top-approaching right-exit"/>
    </vehicle>
    <vehicle id="L2-CV-12" type="L2-CV-Right-" depart="57.00">
        <route edges="left-long-approaching preparation left-short-approaching bottom-exit"/>
    </vehicle>
    <vehicle id="L2-CV-13" type="L2-CV-" depart="61.75">
        <route edges="top-approaching closed-lane remerging-lane left-exit"/>
    </vehicle>
    <vehicle id="L2-CV-14" type="L2-CV-" depart="66.50">
        <route edges="right-approaching top-exit"/>
    </vehicle>
    <vehicle id="L2-CV-15" type="L2-CV-" depart="71.25">
        <route edges="right-approaching top-exit"/>
    </vehicle>
    <vehicle id="L2-CV-16" type="L2-CV-Left-" depart="76.00">
        <route edges="left-long-approaching preparation"/>
    </vehicle>
    <vehicle id="L2-CV-17" type="L2-CV-Left-" depart="80.75">
        <route edges="left-long-approaching preparation"/>
    </vehicle>
    <vehicle id="L2-CV-18" type="L2-CV-" depart="85.50">
        <route edges="top-approaching bottom-exit"/>
    </vehicle>
    <vehicle id="L2-CV-20" type="L2-CV-" depart="95.00">
        <route edges="top-approaching closed-lane remerging-lane left-exit"/>
    </vehicle>
    <vehicle id="L2-CV-21" type="L2-CV-" depart="99.75">
        <route edges="right-approaching closed-lane remerging-lane left-exit"/>
    </vehicle>
    <vehicle id="L2-CV-22" type="L2-CV-" depart="104.50">
        <route edges="right-approaching closed-lane remerging-lane left-exit"/>
    </vehicle>
    <vehicle id="L2-CV-23" type="L2-CV-" depart="109.25">
        <route edges="left-long-approaching preparation left-short-approaching right-exit"/>
    </vehicle>
    <vehicle id="L2-CV-24" type="L2-CV-" depart="114.00">
        <route edges="right-approaching top-exit"/>
    </vehicle>
    <vehicle id="L2-CV-25" type="L2-CV-" depart="118.75">
        <route edges="right-approaching top-exit"/>
    </vehicle>
    <vehicle id="L2-CV-27" type="L2-CV-" depart="128.25">
        <route edges="right-approaching bottom-exit"/>
    </vehicle>
    <vehicle id="L2-CV-29" type="L2-CV-" depart="137.75">
        <route edges="top-approaching right-exit"/>
    </vehicle>
    <vehicle id="L2-CV-30" type="L2-CV-" depart="142.50">
        <route edges="right-approaching bottom-exit"/>
    </vehicle>
    <vehicle id="L2-CV-31" type="L2-CV-" depart="147.25">
        <route edges="top-approaching right-exit"/>
    </vehicle>
    <vehicle id="L2-CV-32" type="L2-CV-Right-" depart="152.00">
        <route edges="left-long-approaching preparation left-short-approaching bottom-exit"/>
    </vehicle>
    <vehicle id="L2-CV-34" type="L2-CV-" depart="161.50">
        <route edges="bottom-approaching top-exit"/>
    </vehicle>
    <vehicle id="L2-CV-35" type="L2-CV-Right-" depart="166.25">
        <route edges="left-long-approaching preparation left-short-approaching bottom-exit"/>
    </vehicle>
    <vehicle id="L2-CV-36" type="L2-CV-Left-" depart="171.00">
        <route edges="left-long-approaching preparation"/>
    </vehicle>
    <vehicle id="L2-CV-37" type="L2-CV-" depart="175.75">
        <route edges="top-approaching bottom-exit"/>
    </vehicle>
    <vehicle id="L2-CV-38" type="L2-CV-" depart="180.50">
        <route edges="right-approaching bottom-exit"/>
    </vehicle>
    <vehicle id="L2-CV-39" type="L2-CV-" depart="185.25">
        <route edges="right-approaching closed-lane remerging-lane left-exit"/>
    </vehicle>
    <vehicle id="L2-CV-41" type="L2-CV-" depart="194.75">
        <route edges="right-approaching top-exit"/>
    </vehicle>
    <vehicle id="L2-CV-42" type="L2-CV-Right-" depart="199.50">
        <route edges="left-long-approaching preparation left-short-approaching bottom-exit"/>
    </vehicle>
    <vehicle id="L2-CV-43" type="L2-CV-" depart="204.25">
        <route edges="right-approaching bottom-exit"/>
    </vehicle>
    <vehicle id="L2-CV-44" type="L2-CV-" depart="209.00">
        <route edges="bottom-approaching closed-lane remerging-lane left-exit"/>
    </vehicle>
    <vehicle id="L2-CV-45" type="L2-CV-" depart="213.75">
        <route edges="right-approaching bottom-exit"/>
    </vehicle>
    <vehicle id="L2-CV-46" type="L2-CV-" depart="218.50">
        <route edges="bottom-approaching top-exit"/>
    </vehicle>
    <vehicle id="L2-CV-47" type="L2-CV-Left-" depart="223.25">
        <route edges="left-long-approaching preparation"/>
    </vehicle>
    <vehicle id="L2-CV-48" type="L2-CV-" depart="228.00">
        <route edges="top-approaching closed-lane remerging-lane left-exit"/>
    </vehicle>
    <vehicle id="L2-CV-49" type="L2-CV-" depart="232.75">
        <route edges="left-long-approaching preparation left-short-approaching right-exit"/>
    </vehicle>
    <vehicle id="L2-CV-52" type="L2-CV-" depart="247.00">
        <route edges="top-approaching right-exit"/>
    </vehicle>
    <vehicle id="L2-CV-53" type="L2-CV-" depart="251.75">
        <route edges="left-long-approaching preparation left-short-approaching right-exit"/>
    </vehicle>
    <vehicle id="L2-CV-54" type="L2-CV-" depart="256.50">
        <route edges="bottom-approaching closed-lane remerging-lane left-exit"/>
    </vehicle>
    <vehicle id="L2-CV-55" type="L2-CV-" depart="261.25">
        <route edges="top-approaching right-exit"/>
    </vehicle>
    <vehicle id="L2-CV-56" type="L2-CV-" depart="266.00">
        <route edges="right-approaching bottom-exit"/>
    </vehicle>
    <vehicle id="L2-CV-57" type="L2-CV-" depart="270.75">
        <route edges="left-long-approaching preparation left-short-approaching right-exit"/>
    </vehicle>
    <vehicle id="L2-CV-58" type="L2-CV-" depart="275.50">
        <route edges="bottom-approaching right-exit"/>
    </vehicle>
    <vehicle id="L2-CV-59" type="L2-CV-" depart="280.25">
        <route edges="right-approaching bottom-exit"/>
    </vehicle>
    <vehicle id="L2-CV-60" type="L2-CV-" depart="285.00">
        <route edges="right-approaching closed-lane remerging-lane left-exit"/>
    </vehicle>
    <vehicle id="L2-CV-61" type="L2-CV-" depart="289.75">
        <route edges="right-approaching closed-lane remerging-lane left-exit"/>
    </vehicle>
    <vehicle id="L2-CV-64" type="L2-CV-" depart="304.00">
        <route edges="right-approaching top-exit"/>
    </vehicle>
    <vehicle id="L2-CV-66" type="L2-CV-" depart="313.50">
        <route edges="right-approaching closed-lane remerging-lane left-exit"/>
    </vehicle>
    <vehicle id="L2-CV-68" type="L2-CV-" depart="323.00">
        <route edges="left-long-approaching preparation left-short-approaching right-exit"/>
    </vehicle>
    <vehicle id="L2-CV-70" type="L2-CV-" depart="332.50">
        <route edges="top-approaching bottom-exit"/>
    </vehicle>
    <vehicle id="L2-CV-72" type="L2-CV-Right-" depart="342.00">
        <route edges="left-long-approaching preparation left-short-approaching bottom-exit"/>
    </vehicle>
    <vehicle id="L2-CV-73" type="L2-CV-" depart="346.75">
        <route edges="top-approaching bottom-exit"/>
    </vehicle>
    <vehicle id="L2-CV-74" type="L2-CV-" depart="351.50">
        <route edges="bottom-approaching closed-lane remerging-lane left-exit"/>
    </vehicle>
    <vehicle id="L2-CV-75" type="L2-CV-" depart="356.25">
        <route edges="right-approaching bottom-exit"/>
    </vehicle>
    <vehicle id="L2-CV-77" type="L2-CV-" depart="365.75">
        <route edges="top-approaching closed-lane remerging-lane left-exit"/>
    </vehicle>
    <vehicle id="L2-CV-78" type="L2-CV-" depart="370.50">
        <route edges="top-approaching bottom-exit"/>
    </vehicle>
    <vehicle id="L2-CV-79" type="L2-CV-" depart="375.25">
        <route edges="left-long-approaching preparation left-short-approaching right-exit"/>
    </vehicle>
    <vehicle id="L2-CV-80" type="L2-CV-" depart="380.00">
        <route edges="top-approaching closed-lane remerging-lane left-exit"/>
    </vehicle>
    <vehicle id="L2-CV-82" type="L2-CV-" depart="389.50">
        <route edges="right-approaching bottom-exit"/>
    </vehicle>
    <vehicle id="L2-CV-84" type="L2-CV-" depart="399.00">
        <route edges="bottom-approaching closed-lane remerging-lane left-exit"/>
    </vehicle>
    <vehicle id="L2-CV-85" type="L2-CV-" depart="403.75">
        <route edges="top-approaching right-exit"/>
    </vehicle>
    <vehicle id="L2-CV-86" type="L2-CV-" depart="408.50">
        <route edges="top-approaching closed-lane remerging-lane left-exit"/>
    </vehicle>
    <vehicle id="L2-CV-87" type="L2-CV-" depart="413.25">
        <route edges="bottom-approaching closed-lane remerging-lane left-exit"/>
    </vehicle>
    <vehicle id="L2-CV-88" type="L2-CV-" depart="418.00">
        <route edges="top-approaching closed-lane remerging-lane left-exit"/>
    </vehicle>
    <vehicle id="L2-CV-91" type="L2-CV-" depart="432.25">
        <route edges="top-approaching bottom-exit"/>
    </vehicle>
    <vehicle id="L2-CV-92" type="L2-CV-" depart="437.00">
        <route edges="bottom-approaching top-exit"/>
    </vehicle>
    <vehicle id="L2-CV-94" type="L2-CV-Left-" depart="446.50">
        <route edges="left-long-approaching preparation"/>
    </vehicle>
    <vehicle id="L2-CV-95" type="L2-CV-" depart="451.25">
        <route edges="top-approaching bottom-exit"/>
    </vehicle>
    <vehicle id="L2-CV-96" type="L2-CV-" depart="456.00">
        <route edges="right-approaching top-exit"/>
    </vehicle>
    <vehicle id="L2-CV-100" type="L2-CV-" depart="475.00">
        <route edges="right-approaching closed-lane remerging-lane left-exit"/>
    </vehicle>
    <vehicle id="L2-CV-101" type="L2-CV-" depart="479.75">
        <route edges="top-approaching bottom-exit"/>
    </vehicle>
    <vehicle id="L2-CV-102" type="L2-CV-" depart="484.50">
        <route edges="top-approaching right-exit"/>
    </vehicle>
    <vehicle id="L2-CV-104" type="L2-CV-" depart="494.00">
        <route edges="top-approaching right-exit"/>
    </vehicle>
    <vehicle id="L2-CV-105" type="L2-CV-" depart="498.75">
        <route edges="bottom-approaching right-exit"/>
    </vehicle>
    <vehicle id="L2-CV-106" type="L2-CV-" depart="503.50">
        <route edges="bottom-approaching closed-lane remerging-lane left-exit"/>
    </vehicle>
    <vehicle id="L2-CV-108" type="L2-CV-Left-" depart="513.00">
        <route edges="left-long-approaching preparation"/>
    </vehicle>
    <vehicle id="L2-CV-109" type="L2-CV-" depart="517.75">
        <route edges="right-approaching closed-lane remerging-lane left-exit"/>
    </vehicle>
    <vehicle id="L2-CV-110" type="L2-CV-Left-" depart="522.50">
        <route edges="left-long-approaching preparation"/>
    </vehicle>
    <vehicle id="L2-CV-111" type="L2-CV-Left-" depart="527.25">
        <route edges="left-long-approaching preparation"/>
    </vehicle>
    <vehicle id="L2-CV-112" type="L2-CV-Right-" depart="532.00">
        <route edges="left-long-approaching preparation left-short-approaching bottom-exit"/>
    </vehicle>
    <vehicle id="L2-CV-113" type="L2-CV-" depart="536.75">
        <route edges="right-approaching top-exit"/>
    </vehicle>
    <vehicle id="L2-CV-114" type="L2-CV-" depart="541.50">
        <route edges="bottom-approaching top-exit"/>
    </vehicle>
    <vehicle id="L2-CV-116" type="L2-CV-" depart="551.00">
        <route edges="top-approaching bottom-exit"/>
    </vehicle>
    <vehicle id="L2-CV-117" type="L2-CV-" depart="555.75">
        <route edges="right-approaching top-exit"/>
    </vehicle>
    <vehicle id="L2-CV-118" type="L2-CV-" depart="560.50">
        <route edges="bottom-approaching closed-lane remerging-lane left-exit"/>
    </vehicle>
    <vehicle id="L2-CV-119" type="L2-CV-" depart="565.25">
        <route edges="left-long-approaching preparation left-short-approaching right-exit"/>
    </vehicle>
    <vehicle id="L2-CV-121" type="L2-CV-" depart="574.75">
        <route edges="top-approaching bottom-exit"/>
    </vehicle>
    <vehicle id="L2-CV-127" type="L2-CV-" depart="603.25">
        <route edges="left-long-approaching preparation left-short-approaching right-exit"/>
    </vehicle>
    <vehicle id="L2-CV-128" type="L2-CV-" depart="608.00">
        <route edges="right-approaching closed-lane remerging-lane left-exit"/>
    </vehicle>
    <vehicle id="L2-CV-129" type="L2-CV-" depart="612.75">
        <route edges="bottom-approaching closed-lane remerging-lane left-exit"/>
    </vehicle>
    <vehicle id="L2-CV-130" type="L2-CV-" depart="617.50">
        <route edges="bottom-approaching right-exit"/>
    </vehicle>
    <vehicle id="L2-CV-131" type="L2-CV-" depart="622.25">
        <route edges="right-approaching closed-lane remerging-lane left-exit"/>
    </vehicle>
    <vehicle id="L2-CV-133" type="L2-CV-" depart="631.75">
        <route edges="left-long-approaching preparation left-short-approaching right-exit"/>
    </vehicle>
    <vehicle id="L2-CV-134" type="L2-CV-" depart="636.50">
        <route edges="top-approaching closed-lane remerging-lane left-exit"/>
    </vehicle>
    <vehicle id="L2-CV-135" type="L2-CV-" depart="641.25">
        <route edges="top-approaching right-exit"/>
    </vehicle>
    <vehicle id="L2-CV-137" type="L2-CV-" depart="650.75">
        <route edges="left-long-approaching preparation left-short-approaching right-exit"/>
    </vehicle>
    <vehicle id="L2-CV-138" type="L2-CV-" depart="655.50">
        <route edges="left-long-approaching preparation left-short-approaching right-exit"/>
    </vehicle>
    <vehicle id="L2-CV-139" type="L2-CV-Right-" depart="660.25">
        <route edges="left-long-approaching preparation left-short-approaching bottom-exit"/>
    </vehicle>
    <vehicle id="L2-CV-141" type="L2-CV-" depart="669.75">
        <route edges="bottom-approaching closed-lane remerging-lane left-exit"/>
    </vehicle>
    <vehicle id="L2-CV-142" type="L2-CV-Left-" depart="674.50">
        <route edges="left-long-approaching preparation"/>
    </vehicle>
    <vehicle id="L2-CV-143" type="L2-CV-" depart="679.25">
        <route edges="top-approaching closed-lane remerging-lane left-exit"/>
    </vehicle>
    <vehicle id="L2-CV-146" type="L2-CV-" depart="693.50">
        <route edges="bottom-approaching top-exit"/>
    </vehicle>
    <vehicle id="L2-CV-147" type="L2-CV-" depart="698.25">
        <route edges="right-approaching top-exit"/>
    </vehicle>
    <vehicle id="L2-CV-148" type="L2-CV-" depart="703.00">
        <route edges="top-approaching right-exit"/>
    </vehicle>
    <vehicle id="L2-CV-150" type="L2-CV-" depart="712.50">
        <route edges="bottom-approaching right-exit"/>
    </vehicle>
    <vehicle id="L2-CV-152" type="L2-CV-" depart="722.00">
        <route edges="top-approaching bottom-exit"/>
    </vehicle>
    <vehicle id="L2-CV-154" type="L2-CV-" depart="731.50">
        <route edges="top-approaching bottom-exit"/>
    </vehicle>
    <vehicle id="L2-CV-155" type="L2-CV-" depart="736.25">
        <route edges="bottom-approaching top-exit"/>
    </vehicle>
    <vehicle id="L2-CV-156" type="L2-CV-" depart="741.00">
        <route edges="bottom-approaching top-exit"/>
    </vehicle>
    <vehicle id="L2-CV-157" type="L2-CV-" depart="745.75">
        <route edges="right-approaching top-exit"/>
    </vehicle>
    <vehicle id="L2-CV-158" type="L2-CV-" depart="750.50">
        <route edges="top-approaching right-exit"/>
    </vehicle>
    <vehicle id="L2-CV-159" type="L2-CV-" depart="755.25">
        <route edges="top-approaching bottom-exit"/>
    </vehicle>
    <vehicle id="L2-CV-160" type="L2-CV-" depart="760.00">
        <route edges="top-approaching right-exit"/>
    </vehicle>
    <vehicle id="L2-CV-161" type="L2-CV-" depart="764.75">
        <route edges="right-approaching bottom-exit"/>
    </vehicle>
    <vehicle id="L2-CV-162" type="L2-CV-" depart="769.50">
        <route edges="right-approaching top-exit"/>
    </vehicle>
    <vehicle id="L2-CV-163" type="L2-CV-" depart="774.25">
        <route edges="bottom-approaching closed-lane remerging-lane left-exit"/>
    </vehicle>
    <vehicle id="L2-CV-164" type="L2-CV-" depart="779.00">
        <route edges="right-approaching top-exit"/>
    </vehicle>
    <vehicle id="L2-CV-166" type="L2-CV-" depart="788.50">
        <route edges="left-long-approaching preparation left-short-approaching right-exit"/>
    </vehicle>
    <vehicle id="L2-CV-167" type="L2-CV-" depart="793.25">
        <route edges="top-approaching closed-lane remerging-lane left-exit"/>
    </vehicle>
    <vehicle id="L2-CV-171" type="L2-CV-" depart="812.25">
        <route edges="top-approaching closed-lane remerging-lane left-exit"/>
    </vehicle>
    <vehicle id="L2-CV-172" type="L2-CV-" depart="817.00">
        <route edges="right-approaching bottom-exit"/>
    </vehicle>
    <vehicle id="L2-CV-173" type="L2-CV-" depart="821.75">
        <route edges="right-approaching top-exit"/>
    </vehicle>
    <vehicle id="L2-CV-175" type="L2-CV-" depart="831.25">
        <route edges="left-long-approaching preparation left-short-approaching right-exit"/>
    </vehicle>
    <vehicle id="L2-CV-176" type="L2-CV-" depart="836.00">
        <route edges="top-approaching bottom-exit"/>
    </vehicle>
    <vehicle id="L2-CV-177" type="L2-CV-" depart="840.75">
        <route edges="bottom-approaching right-exit"/>
    </vehicle>
    <vehicle id="L2-CV-178" type="L2-CV-" depart="845.50">
        <route edges="top-approaching right-exit"/>
    </vehicle>
    <vehicle id="L2-CV-179" type="L2-CV-" depart="850.25">
        <route edges="left-long-approaching preparation left-short-approaching right-exit"/>
    </vehicle>
    <vehicle id="L2-CV-180" type="L2-CV-" depart="855.00">
        <route edges="bottom-approaching closed-lane remerging-lane left-exit"/>
    </vehicle>
    <vehicle id="L2-CV-181" type="L2-CV-" depart="859.75">
        <route edges="bottom-approaching right-exit"/>
    </vehicle>
    <vehicle id="L2-CV-182" type="L2-CV-Right-" depart="864.50">
        <route edges="left-long-approaching preparation left-short-approaching bottom-exit"/>
    </vehicle>
    <vehicle id="L2-CV-183" type="L2-CV-" depart="869.25">
        <route edges="right-approaching top-exit"/>
    </vehicle>
    <vehicle id="L2-CV-184" type="L2-CV-" depart="874.00">
        <route edges="left-long-approaching preparation left-short-approaching right-exit"/>
    </vehicle>
    <vehicle id="L2-CV-185" type="L2-CV-Left-" depart="878.75">
        <route edges="left-long-approaching preparation"/>
    </vehicle>
    <vehicle id="L2-CV-186" type="L2-CV-" depart="883.50">
        <route edges="right-approaching closed-lane remerging-lane left-exit"/>
    </vehicle>
    <vehicle id="L2-CV-189" type="L2-CV-" depart="897.75">
        <route edges="bottom-approaching closed-lane remerging-lane left-exit"/>
    </vehicle>
    <vehicle id="L2-CV-190" type="L2-CV-Left-" depart="902.50">
        <route edges="left-long-approaching preparation"/>
    </vehicle>
    <vehicle id="L2-CV-191" type="L2-CV-" depart="907.25">
        <route edges="bottom-approaching top-exit"/>
    </vehicle>
    <vehicle id="L2-CV-192" type="L2-CV-" depart="912.00">
        <route edges="left-long-approaching preparation left-short-approaching right-exit"/>
    </vehicle>
    <vehicle id="L2-CV-193" type="L2-CV-Left-" depart="916.75">
        <route edges="left-long-approaching preparation"/>
    </vehicle>
    <vehicle id="L2-CV-194" type="L2-CV-" depart="921.50">
        <route edges="top-approaching right-exit"/>
    </vehicle>
    <vehicle id="L2-CV-195" type="L2-CV-" depart="926.25">
        <route edges="left-long-approaching preparation left-short-approaching right-exit"/>
    </vehicle>
    <vehicle id="L2-CV-196" type="L2-CV-" depart="931.00">
        <route edges="top-approaching closed-lane remerging-lane left-exit"/>
    </vehicle>
    <vehicle id="L2-CV-197" type="L2-CV-" depart="935.75">
        <route edges="right-approaching top-exit"/>
    </vehicle>
    <vehicle id="L2-CV-198" type="L2-CV-Right-" depart="940.50">
        <route edges="left-long-approaching preparation left-short-approaching bottom-exit"/>
    </vehicle>
    <vehicle id="L2-CV-199" type="L2-CV-" depart="945.25">
        <route edges="bottom-approaching right-exit"/>
    </vehicle>
    <vehicle id="L2-CV-200" type="L2-CV-" depart="950.00">
        <route edges="right-approaching top-exit"/>
    </vehicle>
    <vehicle id="L2-CV-201" type="L2-CV-" depart="954.75">
        <route edges="top-approaching bottom-exit"/>
    </vehicle>
    <vehicle id="L2-CV-202" type="L2-CV-" depart="959.50">
        <route edges="bottom-approaching closed-lane remerging-lane left-exit"/>
    </vehicle>
    <vehicle id="L2-CV-203" type="L2-CV-" depart="964.25">
        <route edges="bottom-approaching right-exit"/>
    </vehicle>
    <vehicle id="L2-CV-205" type="L2-CV-Left-" depart="973.75">
        <route edges="left-long-approaching preparation"/>
    </vehicle>
    <vehicle id="L2-CV-207" type="L2-CV-" depart="983.25">
        <route edges="right-approaching bottom-exit"/>
    </vehicle>
    <vehicle id="L2-CV-208" type="L2-CV-" depart="988.00">
        <route edges="bottom-approaching top-exit"/>
    </vehicle>
    <vehicle id="L2-CV-211" type="L2-CV-" depart="1002.25">
        <route edges="bottom-approaching closed-lane remerging-lane left-exit"/>
    </vehicle>
    <vehicle id="L2-CV-213" type="L2-CV-" depart="1011.75">
        <route edges="bottom-approaching right-exit"/>
    </vehicle>
    <vehicle id="L2-CV-214" type="L2-CV-" depart="1016.50">
        <route edges="top-approaching closed-lane remerging-lane left-exit"/>
    </vehicle>
    <vehicle id="L2-CV-215" type="L2-CV-" depart="1021.25">
        <route edges="right-approaching bottom-exit"/>
    </vehicle>
    <vehicle id="L2-CV-216" type="L2-CV-" depart="1026.00">
        <route edges="left-long-approaching preparation left-short-approaching right-exit"/>
    </vehicle>
    <vehicle id="L2-CV-217" type="L2-CV-" depart="1030.75">
        <route edges="bottom-approaching top-exit"/>
    </vehicle>
    <vehicle id="L2-CV-218" type="L2-CV-" depart="1035.50">
        <route edges="top-approaching bottom-exit"/>
    </vehicle>
    <vehicle id="L2-CV-219" type="L2-CV-" depart="1040.25">
        <route edges="top-approaching closed-lane remerging-lane left-exit"/>
    </vehicle>
    <vehicle id="L2-CV-221" type="L2-CV-" depart="1049.75">
        <route edges="left-long-approaching preparation left-short-approaching right-exit"/>
    </vehicle>
    <vehicle id="L2-CV-222" type="L2-CV-" depart="1054.50">
        <route edges="right-approaching top-exit"/>
    </vehicle>
    <vehicle id="L2-CV-223" type="L2-CV-Left-" depart="1059.25">
        <route edges="left-long-approaching preparation"/>
    </vehicle>
    <vehicle id="L2-CV-224" type="L2-CV-" depart="1064.00">
        <route edges="top-approaching right-exit"/>
    </vehicle>
    <vehicle id="L2-CV-225" type="L2-CV-" depart="1068.75">
        <route edges="right-approaching bottom-exit"/>
    </vehicle>
    <vehicle id="L2-CV-228" type="L2-CV-" depart="1083.00">
        <route edges="right-approaching bottom-exit"/>
    </vehicle>
    <vehicle id="L2-CV-230" type="L2-CV-" depart="1092.50">
        <route edges="bottom-approaching top-exit"/>
    </vehicle>
    <vehicle id="L2-CV-231" type="L2-CV-" depart="1097.25">
        <route edges="right-approaching bottom-exit"/>
    </vehicle>
    <vehicle id="L2-CV-232" type="L2-CV-" depart="1102.00">
        <route edges="top-approaching bottom-exit"/>
    </vehicle>
    <vehicle id="L2-CV-233" type="L2-CV-" depart="1106.75">
        <route edges="left-long-approaching preparation left-short-approaching right-exit"/>
    </vehicle>
    <vehicle id="L2-CV-235" type="L2-CV-" depart="1116.25">
        <route edges="right-approaching closed-lane remerging-lane left-exit"/>
    </vehicle>
    <vehicle id="L2-CV-236" type="L2-CV-Right-" depart="1121.00">
        <route edges="left-long-approaching preparation left-short-approaching bottom-exit"/>
    </vehicle>
    <vehicle id="L2-CV-237" type="L2-CV-" depart="1125.75">
        <route edges="bottom-approaching right-exit"/>
    </vehicle>
    <vehicle id="L2-CV-238" type="L2-CV-" depart="1130.50">
        <route edges="top-approaching right-exit"/>
    </vehicle>
    <vehicle id="L2-CV-239" type="L2-CV-" depart="1135.25">
        <route edges="right-approaching closed-lane remerging-lane left-exit"/>
    </vehicle>
    <vehicle id="L2-CV-241" type="L2-CV-" depart="1144.75">
        <route edges="top-approaching bottom-exit"/>
    </vehicle>
    <vehicle id="L2-CV-242" type="L2-CV-" depart="1149.50">
        <route edges="right-approaching bottom-exit"/>
    </vehicle>
    <vehicle id="L2-CV-243" type="L2-CV-" depart="1154.25">
        <route edges="top-approaching closed-lane remerging-lane left-exit"/>
    </vehicle>
    <vehicle id="L2-CV-245" type="L2-CV-" depart="1163.75">
        <route edges="right-approaching top-exit"/>
    </vehicle>
    <vehicle id="L2-CV-246" type="L2-CV-Left-" depart="1168.50">
        <route edges="left-long-approaching preparation"/>
    </vehicle>
    <vehicle id="L2-CV-247" type="L2-CV-" depart="1173.25">
        <route edges="bottom-approaching closed-lane remerging-lane left-exit"/>
    </vehicle>
    <vehicle id="L2-CV-249" type="L2-CV-" depart="1182.75">
        <route edges="top-approaching right-exit"/>
    </vehicle>
    <vehicle id="L2-CV-251" type="L2-CV-" depart="1192.25">
        <route edges="left-long-approaching preparation left-short-approaching right-exit"/>
    </vehicle>
    <vehicle id="L2-CV-252" type="L2-CV-" depart="1197.00">
        <route edges="top-approaching right-exit"/>
    </vehicle>
    <vehicle id="L2-CV-253" type="L2-CV-" depart="1201.75">
        <route edges="right-approaching bottom-exit"/>
    </vehicle>
    <vehicle id="L2-CV-254" type="L2-CV-Right-" depart="1206.50">
        <route edges="left-long-approaching preparation left-short-approaching bottom-exit"/>
    </vehicle>
    <vehicle id="L2-CV-256" type="L2-CV-" depart="1216.00">
        <route edges="bottom-approaching closed-lane remerging-lane left-exit"/>
    </vehicle>
    <vehicle id="L2-CV-257" type="L2-CV-" depart="1220.75">
        <route edges="top-approaching bottom-exit"/>
    </vehicle>
    <vehicle id="L2-CV-259" type="L2-CV-" depart="1230.25">
        <route edges="top-approaching closed-lane remerging-lane left-exit"/>
    </vehicle>
    <vehicle id="L2-CV-261" type="L2-CV-" depart="1239.75">
        <route edges="right-approaching top-exit"/>
    </vehicle>
    <vehicle id="L2-CV-262" type="L2-CV-" depart="1244.50">
        <route edges="right-approaching closed-lane remerging-lane left-exit"/>
    </vehicle>
    <vehicle id="L2-CV-263" type="L2-CV-" depart="1249.25">
        <route edges="top-approaching closed-lane remerging-lane left-exit"/>
    </vehicle>
    <vehicle id="L2-CV-265" type="L2-CV-" depart="1258.75">
        <route edges="bottom-approaching top-exit"/>
    </vehicle>
    <vehicle id="L2-CV-266" type="L2-CV-" depart="1263.50">
        <route edges="right-approaching closed-lane remerging-lane left-exit"/>
    </vehicle>
    <vehicle id="L2-CV-267" type="L2-CV-" depart="1268.25">
        <route edges="right-approaching closed-lane remerging-lane left-exit"/>
    </vehicle>
    <vehicle id="L2-CV-268" type="L2-CV-" depart="1273.00">
        <route edges="bottom-approaching right-exit"/>
    </vehicle>
    <vehicle id="L2-CV-270" type="L2-CV-" depart="1282.50">
        <route edges="right-approaching closed-lane remerging-lane left-exit"/>
    </vehicle>