<?xml version="1.0" ?><!-- generated on 03/26/21 00:46:47 by Eclipse SUMO duarouter Version 1.8.0
<configuration xmlns:xsi="http://www.w3.org/2001/XMLSchema-instance" xsi:noNamespaceSchemaLocation="http://sumo.dlr.de/xsd/duarouterConfiguration.xsd">

    <input>
        <net-file value="Roadworks/RoadworksIntersection.net.xml"/>
        <route-files value="trips.trips.xml"/>
    </input>

    <output>
        <output-file value="Roadworks/BaselinePenetration2/Route-Files/L2-CV-Route.rou.xml"/>
        <alternatives-output value="Roadworks/BaselinePenetration2/Route-Files/L2-CV-Route.rou.alt.xml"/>
    </output>

    <time>
        <begin value="0"/>
        <end value="3600"/>
    </time>

    <report>
        <no-warnings value="true"/>
        <ignore-errors value="true"/>
        <no-step-log value="true"/>
    </report>

</configuration>
--><routes xmlns:xsi="http://www.w3.org/2001/XMLSchema-instance" xsi:noNamespaceSchemaLocation="http://sumo.dlr.de/xsd/routes_file.xsd">
    <vehicle id="L2-CV-0" type="L2-CV-Right-" depart="0.00">
        <route edges="left-long-approaching preparation left-short-approaching bottom-exit"/>
    </vehicle>
    <vehicle id="L2-CV-1" type="L2-CV-" depart="4.75">
        <route edges="right-approaching bottom-exit"/>
    </vehicle>
    <vehicle id="L2-CV-2" type="L2-CV-" depart="9.50">
        <route edges="right-approaching closed-lane remerging-lane left-exit"/>
    </vehicle>
    <vehicle id="L2-CV-3" type="L2-CV-" depart="14.25">
        <route edges="bottom-approaching right-exit"/>
    </vehicle>
    <vehicle id="L2-CV-4" type="L2-CV-" depart="19.00">
        <route edges="bottom-approaching closed-lane remerging-lane left-exit"/>
    </vehicle>
    <vehicle id="L2-CV-6" type="L2-CV-Left-" depart="28.50">
        <route edges="left-long-approaching preparation"/>
    </vehicle>
    <vehicle id="L2-CV-8" type="L2-CV-" depart="38.00">
        <route edges="right-approaching top-exit"/>
    </vehicle>
    <vehicle id="L2-CV-9" type="L2-CV-" depart="42.75">
        <route edges="right-approaching closed-lane remerging-lane left-exit"/>
    </vehicle>
    <vehicle id="L2-CV-10" type="L2-CV-" depart="47.50">
        <route edges="top-approaching bottom-exit"/>
    </vehicle>
    <vehicle id="L2-CV-11" type="L2-CV-" depart="52.25">
        <route edges="top-approaching closed-lane remerging-lane left-exit"/>
    </vehicle>
    <vehicle id="L2-CV-13" type="L2-CV-Left-" depart="61.75">
        <route edges="left-long-approaching preparation"/>
    </vehicle>
    <vehicle id="L2-CV-14" type="L2-CV-" depart="66.50">
        <route edges="bottom-approaching right-exit"/>
    </vehicle>
    <vehicle id="L2-CV-15" type="L2-CV-" depart="71.25">
        <route edges="right-approaching closed-lane remerging-lane left-exit"/>
    </vehicle>
    <vehicle id="L2-CV-16" type="L2-CV-" depart="76.00">
        <route edges="right-approaching bottom-exit"/>
    </vehicle>
    <vehicle id="L2-CV-18" type="L2-CV-" depart="85.50">
        <route edges="right-approaching closed-lane remerging-lane left-exit"/>
    </vehicle>
    <vehicle id="L2-CV-19" type="L2-CV-" depart="90.25">
        <route edges="left-long-approaching preparation left-short-approaching right-exit"/>
    </vehicle>
    <vehicle id="L2-CV-21" type="L2-CV-" depart="99.75">
        <route edges="top-approaching right-exit"/>
    </vehicle>
    <vehicle id="L2-CV-22" type="L2-CV-" depart="104.50">
        <route edges="bottom-approaching right-exit"/>
    </vehicle>
    <vehicle id="L2-CV-23" type="L2-CV-" depart="109.25">
        <route edges="right-approaching top-exit"/>
    </vehicle>
    <vehicle id="L2-CV-24" type="L2-CV-" depart="114.00">
        <route edges="right-approaching closed-lane remerging-lane left-exit"/>
    </vehicle>
    <vehicle id="L2-CV-25" type="L2-CV-" depart="118.75">
        <route edges="top-approaching bottom-exit"/>
    </vehicle>
    <vehicle id="L2-CV-26" type="L2-CV-Left-" depart="123.50">
        <route edges="left-long-approaching preparation"/>
    </vehicle>
    <vehicle id="L2-CV-27" type="L2-CV-" depart="128.25">
        <route edges="bottom-approaching closed-lane remerging-lane left-exit"/>
    </vehicle>
    <vehicle id="L2-CV-28" type="L2-CV-" depart="133.00">
        <route edges="bottom-approaching right-exit"/>
    </vehicle>
    <vehicle id="L2-CV-29" type="L2-CV-" depart="137.75">
        <route edges="top-approaching right-exit"/>
    </vehicle>
    <vehicle id="L2-CV-30" type="L2-CV-" depart="142.50">
        <route edges="top-approaching closed-lane remerging-lane left-exit"/>
    </vehicle>
    <vehicle id="L2-CV-32" type="L2-CV-" depart="152.00">
        <route edges="right-approaching closed-lane remerging-lane left-exit"/>
    </vehicle>
    <vehicle id="L2-CV-34" type="L2-CV-" depart="161.50">
        <route edges="left-long-approaching preparation left-short-approaching right-exit"/>
    </vehicle>
    <vehicle id="L2-CV-35" type="L2-CV-" depart="166.25">
        <route edges="bottom-approaching right-exit"/>
    </vehicle>
    <vehicle id="L2-CV-36" type="L2-CV-" depart="171.00">
        <route edges="right-approaching top-exit"/>
    </vehicle>
    <vehicle id="L2-CV-37" type="L2-CV-" depart="175.75">
        <route edges="top-approaching closed-lane remerging-lane left-exit"/>
    </vehicle>
    <vehicle id="L2-CV-38" type="L2-CV-" depart="180.50">
        <route edges="left-long-approaching preparation left-short-approaching right-exit"/>
    </vehicle>
    <vehicle id="L2-CV-39" type="L2-CV-" depart="185.25">
        <route edges="bottom-approaching closed-lane remerging-lane left-exit"/>
    </vehicle>
    <vehicle id="L2-CV-41" type="L2-CV-" depart="194.75">
        <route edges="bottom-approaching top-exit"/>
    </vehicle>
    <vehicle id="L2-CV-43" type="L2-CV-Left-" depart="204.25">
        <route edges="left-long-approaching preparation"/>
    </vehicle>
    <vehicle id="L2-CV-44" type="L2-CV-" depart="209.00">
        <route edges="bottom-approaching closed-lane remerging-lane left-exit"/>
    </vehicle>
    <vehicle id="L2-CV-45" type="L2-CV-" depart="213.75">
        <route edges="right-approaching top-exit"/>
    </vehicle>
    <vehicle id="L2-CV-48" type="L2-CV-Left-" depart="228.00">
        <route edges="left-long-approaching preparation"/>
    </vehicle>
    <vehicle id="L2-CV-49" type="L2-CV-" depart="232.75">
        <route edges="top-approaching bottom-exit"/>
    </vehicle>
    <vehicle id="L2-CV-51" type="L2-CV-" depart="242.25">
        <route edges="bottom-approaching closed-lane remerging-lane left-exit"/>
    </vehicle>
    <vehicle id="L2-CV-52" type="L2-CV-" depart="247.00">
        <route edges="right-approaching closed-lane remerging-lane left-exit"/>
    </vehicle>
    <vehicle id="L2-CV-53" type="L2-CV-" depart="251.75">
        <route edges="bottom-approaching closed-lane remerging-lane left-exit"/>
    </vehicle>
    <vehicle id="L2-CV-54" type="L2-CV-" depart="256.50">
        <route edges="left-long-approaching preparation left-short-approaching right-exit"/>
    </vehicle>
    <vehicle id="L2-CV-55" type="L2-CV-" depart="261.25">
        <route edges="top-approaching right-exit"/>
    </vehicle>
    <vehicle id="L2-CV-57" type="L2-CV-" depart="270.75">
        <route edges="right-approaching bottom-exit"/>
    </vehicle>
    <vehicle id="L2-CV-61" type="L2-CV-" depart="289.75">
        <route edges="bottom-approaching right-exit"/>
    </vehicle>
    <vehicle id="L2-CV-64" type="L2-CV-Right-" depart="304.00">
        <route edges="left-long-approaching preparation left-short-approaching bottom-exit"/>
    </vehicle>
    <vehicle id="L2-CV-66" type="L2-CV-" depart="313.50">
        <route edges="bottom-approaching closed-lane remerging-lane left-exit"/>
    </vehicle>
    <vehicle id="L2-CV-67" type="L2-CV-" depart="318.25">
        <route edges="bottom-approaching top-exit"/>
    </vehicle>
    <vehicle id="L2-CV-68" type="L2-CV-" depart="323.00">
        <route edges="right-approaching bottom-exit"/>
    </vehicle>
    <vehicle id="L2-CV-70" type="L2-CV-Right-" depart="332.50">
        <route edges="left-long-approaching preparation left-short-approaching bottom-exit"/>
    </vehicle>
    <vehicle id="L2-CV-75" type="L2-CV-" depart="356.25">
        <route edges="top-approaching bottom-exit"/>
    </vehicle>
    <vehicle id="L2-CV-76" type="L2-CV-" depart="361.00">
        <route edges="bottom-approaching top-exit"/>
    </vehicle>
    <vehicle id="L2-CV-77" type="L2-CV-" depart="365.75">
        <route edges="right-approaching bottom-exit"/>
    </vehicle>
    <vehicle id="L2-CV-78" type="L2-CV-" depart="370.50">
        <route edges="right-approaching bottom-exit"/>
    </vehicle>
    <vehicle id="L2-CV-79" type="L2-CV-" depart="375.25">
        <route edges="right-approaching top-exit"/>
    </vehicle>
    <vehicle id="L2-CV-80" type="L2-CV-" depart="380.00">
        <route edges="top-approaching right-exit"/>
    </vehicle>
    <vehicle id="L2-CV-82" type="L2-CV-" depart="389.50">
        <route edges="bottom-approaching top-exit"/>
    </vehicle>
    <vehicle id="L2-CV-83" type="L2-CV-" depart="394.25">
        <route edges="right-approaching top-exit"/>
    </vehicle>
    <vehicle id="L2-CV-84" type="L2-CV-Right-" depart="399.00">
        <route edges="left-long-approaching preparation left-short-approaching bottom-exit"/>
    </vehicle>
    <vehicle id="L2-CV-87" type="L2-CV-" depart="413.25">
        <route edges="top-approaching right-exit"/>
    </vehicle>
    <vehicle id="L2-CV-88" type="L2-CV-" depart="418.00">
        <route edges="bottom-approaching right-exit"/>
    </vehicle>
    <vehicle id="L2-CV-89" type="L2-CV-Right-" depart="422.75">
        <route edges="left-long-approaching preparation left-short-approaching bottom-exit"/>
    </vehicle>
    <vehicle id="L2-CV-90" type="L2-CV-" depart="427.50">
        <route edges="bottom-approaching closed-lane remerging-lane left-exit"/>
    </vehicle>
    <vehicle id="L2-CV-91" type="L2-CV-" depart="432.25">
        <route edges="left-long-approaching preparation left-short-approaching right-exit"/>
    </vehicle>
    <vehicle id="L2-CV-92" type="L2-CV-" depart="437.00">
        <route edges="top-approaching closed-lane remerging-lane left-exit"/>
    </vehicle>
    <vehicle id="L2-CV-94" type="L2-CV-" depart="446.50">
        <route edges="top-approaching closed-lane remerging-lane left-exit"/>
    </vehicle>
    <vehicle id="L2-CV-97" type="L2-CV-" depart="460.75">
        <route edges="right-approaching top-exit"/>
    </vehicle>
    <vehicle id="L2-CV-98" type="L2-CV-" depart="465.50">
        <route edges="top-approaching closed-lane remerging-lane left-exit"/>
    </vehicle>
    <vehicle id="L2-CV-99" type="L2-CV-" depart="470.25">
        <route edges="right-approaching top-exit"/>
    </vehicle>
    <vehicle id="L2-CV-100" type="L2-CV-" depart="475.00">
        <route edges="bottom-approaching right-exit"/>
    </vehicle>
    <vehicle id="L2-CV-102" type="L2-CV-" depart="484.50">
        <route edges="right-approaching closed-lane remerging-lane left-exit"/>
    </vehicle>
    <vehicle id="L2-CV-103" type="L2-CV-" depart="489.25">
        <route edges="bottom-approaching top-exit"/>
    </vehicle>
    <vehicle id="L2-CV-104" type="L2-CV-Left-" depart="494.00">
        <route edges="left-long-approaching preparation"/>
    </vehicle>
    <vehicle id="L2-CV-105" type="L2-CV-" depart="498.75">
        <route edges="top-approaching closed-lane remerging-lane left-exit"/>
    </vehicle>
    <vehicle id="L2-CV-106" type="L2-CV-Left-" depart="503.50">
        <route edges="left-long-approaching preparation"/>
    </vehicle>
    <vehicle id="L2-CV-107" type="L2-CV-" depart="508.25">
        <route edges="right-approaching bottom-exit"/>
    </vehicle>
    <vehicle id="L2-CV-110" type="L2-CV-" depart="522.50">
        <route edges="bottom-approaching top-exit"/>
    </vehicle>
    <vehicle id="L2-CV-111" type="L2-CV-" depart="527.25">
        <route edges="top-approaching right-exit"/>
    </vehicle>
    <vehicle id="L2-CV-112" type="L2-CV-" depart="532.00">
        <route edges="left-long-approaching preparation left-short-approaching right-exit"/>
    </vehicle>
    <vehicle id="L2-CV-114" type="L2-CV-" depart="541.50">
        <route edges="top-approaching right-exit"/>
    </vehicle>
    <vehicle id="L2-CV-115" type="L2-CV-" depart="546.25">
        <route edges="right-approaching top-exit"/>
    </vehicle>
    <vehicle id="L2-CV-116" type="L2-CV-Left-" depart="551.00">
        <route edges="left-long-approaching preparation"/>
    </vehicle>
    <vehicle id="L2-CV-117" type="L2-CV-" depart="555.75">
        <route edges="top-approaching bottom-exit"/>
    </vehicle>
    <vehicle id="L2-CV-119" type="L2-CV-" depart="565.25">
        <route edges="bottom-approaching right-exit"/>
    </vehicle>
    <vehicle id="L2-CV-121" type="L2-CV-" depart="574.75">
        <route edges="bottom-approaching top-exit"/>
    </vehicle>
    <vehicle id="L2-CV-123" type="L2-CV-" depart="584.25">
        <route edges="right-approaching top-exit"/>
    </vehicle>
    <vehicle id="L2-CV-124" type="L2-CV-Left-" depart="589.00">
        <route edges="left-long-approaching preparation"/>
    </vehicle>
    <vehicle id="L2-CV-125" type="L2-CV-" depart="593.75">
        <route edges="left-long-approaching preparation left-short-approaching right-exit"/>
    </vehicle>
    <vehicle id="L2-CV-126" type="L2-CV-" depart="598.50">
        <route edges="right-approaching bottom-exit"/>
    </vehicle>
    <vehicle id="L2-CV-127" type="L2-CV-Right-" depart="603.25">
        <route edges="left-long-approaching preparation left-short-approaching bottom-exit"/>
    </vehicle>
    <vehicle id="L2-CV-128" type="L2-CV-" depart="608.00">
        <route edges="bottom-approaching top-exit"/>
    </vehicle>
    <vehicle id="L2-CV-129" type="L2-CV-" depart="612.75">
        <route edges="bottom-approaching closed-lane remerging-lane left-exit"/>
    </vehicle>
    <vehicle id="L2-CV-131" type="L2-CV-" depart="622.25">
        <route edges="left-long-approaching preparation left-short-approaching right-exit"/>
    </vehicle>
    <vehicle id="L2-CV-132" type="L2-CV-" depart="627.00">
        <route edges="right-approaching top-exit"/>
    </vehicle>
    <vehicle id="L2-CV-133" type="L2-CV-" depart="631.75">
        <route edges="bottom-approaching right-exit"/>
    </vehicle>
    <vehicle id="L2-CV-134" type="L2-CV-" depart="636.50">
        <route edges="closed-lane remerging-lane left-exit"/>
    </vehicle>
    <vehicle id="L2-CV-135" type="L2-CV-" depart="641.25">
        <route edges="top-approaching right-exit"/>
    </vehicle>
    <vehicle id="L2-CV-136" type="L2-CV-" depart="646.00">
        <route edges="right-approaching top-exit"/>
    </vehicle>
    <vehicle id="L2-CV-137" type="L2-CV-" depart="650.75">
        <route edges="top-approaching closed-lane remerging-lane left-exit"/>
    </vehicle>
    <vehicle id="L2-CV-140" type="L2-CV-" depart="665.00">
        <route edges="left-long-approaching preparation left-short-approaching right-exit"/>
    </vehicle>
    <vehicle id="L2-CV-141" type="L2-CV-Left-" depart="669.75">
        <route edges="left-long-approaching preparation"/>
    </vehicle>
    <vehicle id="L2-CV-142" type="L2-CV-" depart="674.50">
        <route edges="right-approaching top-exit"/>
    </vehicle>
    <vehicle id="L2-CV-143" type="L2-CV-" depart="679.25">
        <route edges="top-approaching closed-lane remerging-lane left-exit"/>
    </vehicle>
    <vehicle id="L2-CV-144" type="L2-CV-" depart="684.00">
        <route edges="right-approaching top-exit"/>
    </vehicle>
    <vehicle id="L2-CV-145" type="L2-CV-" depart="688.75">
        <route edges="top-approaching bottom-exit"/>
    </vehicle>
    <vehicle id="L2-CV-146" type="L2-CV-" depart="693.50">
        <route edges="bottom-approaching closed-lane remerging-lane left-exit"/>
    </vehicle>
    <vehicle id="L2-CV-148" type="L2-CV-" depart="703.00">
        <route edges="bottom-approaching right-exit"/>
    </vehicle>
    <vehicle id="L2-CV-150" type="L2-CV-" depart="712.50">
        <route edges="bottom-approaching right-exit"/>
    </vehicle>
    <vehicle id="L2-CV-151" type="L2-CV-" depart="717.25">
        <route edges="right-approaching bottom-exit"/>
    </vehicle>
    <vehicle id="L2-CV-153" type="L2-CV-" depart="726.75">
        <route edges="bottom-approaching top-exit"/>
    </vehicle>
    <vehicle id="L2-CV-156" type="L2-CV-" depart="741.00">
        <route edges="bottom-approaching closed-lane remerging-lane left-exit"/>
    </vehicle>
    <vehicle id="L2-CV-157" type="L2-CV-" depart="745.75">
        <route edges="right-approaching closed-lane remerging-lane left-exit"/>
    </vehicle>
    <vehicle id="L2-CV-158" type="L2-CV-" depart="750.50">
        <route edges="bottom-approaching closed-lane remerging-lane left-exit"/>
    </vehicle>
    <vehicle id="L2-CV-159" type="L2-CV-" depart="755.25">
        <route edges="right-approaching bottom-exit"/>
    </vehicle>
    <vehicle id="L2-CV-160" type="L2-CV-" depart="760.00">
        <route edges="right-approaching closed-lane remerging-lane left-exit"/>
    </vehicle>
    <vehicle id="L2-CV-161" type="L2-CV-" depart="764.75">
        <route edges="bottom-approaching closed-lane remerging-lane left-exit"/>
    </vehicle>
    <vehicle id="L2-CV-163" type="L2-CV-" depart="774.25">
        <route edges="bottom-approaching top-exit"/>
    </vehicle>
    <vehicle id="L2-CV-165" type="L2-CV-" depart="783.75">
        <route edges="bottom-approaching closed-lane remerging-lane left-exit"/>
    </vehicle>
    <vehicle id="L2-CV-166" type="L2-CV-" depart="788.50">
        <route edges="bottom-approaching top-exit"/>
    </vehicle>
    <vehicle id="L2-CV-167" type="L2-CV-Right-" depart="793.25">
        <route edges="left-long-approaching preparation left-short-approaching bottom-exit"/>
    </vehicle>
    <vehicle id="L2-CV-168" type="L2-CV-Left-" depart="798.00">
        <route edges="left-long-approaching preparation"/>
    </vehicle>
    <vehicle id="L2-CV-169" type="L2-CV-" depart="802.75">
        <route edges="top-approaching closed-lane remerging-lane left-exit"/>
    </vehicle>
    <vehicle id="L2-CV-170" type="L2-CV-" depart="807.50">
        <route edges="bottom-approaching top-exit"/>
    </vehicle>
    <vehicle id="L2-CV-173" type="L2-CV-" depart="821.75">
        <route edges="right-approaching closed-lane remerging-lane left-exit"/>
    </vehicle>
    <vehicle id="L2-CV-174" type="L2-CV-" depart="826.50">
        <route edges="bottom-approaching top-exit"/>
    </vehicle>
    <vehicle id="L2-CV-175" type="L2-CV-" depart="831.25">
        <route edges="right-approaching top-exit"/>
    </vehicle>
    <vehicle id="L2-CV-176" type="L2-CV-" depart="836.00">
        <route edges="bottom-approaching top-exit"/>
    </vehicle>
    <vehicle id="L2-CV-177" type="L2-CV-" depart="840.75">
        <route edges="bottom-approaching top-exit"/>
    </vehicle>
    <vehicle id="L2-CV-179" type="L2-CV-" depart="850.25">
        <route edges="right-approaching top-exit"/>
    </vehicle>
    <vehicle id="L2-CV-180" type="L2-CV-Right-" depart="855.00">
        <route edges="left-long-approaching preparation left-short-approaching bottom-exit"/>
    </vehicle>
    <vehicle id="L2-CV-181" type="L2-CV-" depart="859.75">
        <route edges="right-approaching bottom-exit"/>
    </vehicle>
    <vehicle id="L2-CV-185" type="L2-CV-" depart="878.75">
        <route edges="top-approaching closed-lane remerging-lane left-exit"/>
    </vehicle>
    <vehicle id="L2-CV-186" type="L2-CV-Right-" depart="883.50">
        <route edges="left-long-approaching preparation left-short-approaching bottom-exit"/>
    </vehicle>
    <vehicle id="L2-CV-187" type="L2-CV-Right-" depart="888.25">
        <route edges="left-long-approaching preparation left-short-approaching bottom-exit"/>
    </vehicle>
    <vehicle id="L2-CV-188" type="L2-CV-Right-" depart="893.00">
        <route edges="left-long-approaching preparation left-short-approaching bottom-exit"/>
    </vehicle>
    <vehicle id="L2-CV-190" type="L2-CV-" depart="902.50">
        <route edges="bottom-approaching closed-lane remerging-lane left-exit"/>
    </vehicle>
    <vehicle id="L2-CV-191" type="L2-CV-" depart="907.25">
        <route edges="top-approaching bottom-exit"/>
    </vehicle>
    <vehicle id="L2-CV-192" type="L2-CV-" depart="912.00">
        <route edges="top-approaching closed-lane remerging-lane left-exit"/>
    </vehicle>
    <vehicle id="L2-CV-193" type="L2-CV-Left-" depart="916.75">
        <route edges="left-long-approaching preparation"/>
    </vehicle>
    <vehicle id="L2-CV-194" type="L2-CV-" depart="921.50">
        <route edges="left-long-approaching preparation left-short-approaching right-exit"/>
    </vehicle>
    <vehicle id="L2-CV-195" type="L2-CV-" depart="926.25">
        <route edges="right-approaching top-exit"/>
    </vehicle>
    <vehicle id="L2-CV-196" type="L2-CV-Left-" depart="931.00">
        <route edges="left-long-approaching preparation"/>
    </vehicle>
    <vehicle id="L2-CV-200" type="L2-CV-" depart="950.00">
        <route edges="bottom-approaching right-exit"/>
    </vehicle>
    <vehicle id="L2-CV-201" type="L2-CV-Right-" depart="954.75">
        <route edges="left-long-approaching preparation left-short-approaching bottom-exit"/>
    </vehicle>
    <vehicle id="L2-CV-202" type="L2-CV-" depart="959.50">
        <route edges="bottom-approaching top-exit"/>
    </vehicle>
    <vehicle id="L2-CV-203" type="L2-CV-" depart="964.25">
        <route edges="top-approaching right-exit"/>
    </vehicle>
    <vehicle id="L2-CV-204" type="L2-CV-Right-" depart="969.00">
        <route edges="left-long-approaching preparation left-short-approaching bottom-exit"/>
    </vehicle>
    <vehicle id="L2-CV-206" type="L2-CV-" depart="978.50">
        <route edges="bottom-approaching closed-lane remerging-lane left-exit"/>
    </vehicle>
    <vehicle id="L2-CV-207" type="L2-CV-Left-" depart="983.25">
        <route edges="left-long-approaching preparation"/>
    </vehicle>
    <vehicle id="L2-CV-208" type="L2-CV-" depart="988.00">
        <route edges="top-approaching right-exit"/>
    </vehicle>
    <vehicle id="L2-CV-209" type="L2-CV-" depart="992.75">
        <route edges="bottom-approaching top-exit"/>
    </vehicle>
    <vehicle id="L2-CV-211" type="L2-CV-" depart="1002.25">
        <route edges="bottom-approaching closed-lane remerging-lane left-exit"/>
    </vehicle>
    <vehicle id="L2-CV-212" type="L2-CV-Right-" depart="1007.00">
        <route edges="left-long-approaching preparation left-short-approaching bottom-exit"/>
    </vehicle>
    <vehicle id="L2-CV-213" type="L2-CV-" depart="1011.75">
        <route edges="bottom-approaching right-exit"/>
    </vehicle>
    <vehicle id="L2-CV-214" type="L2-CV-" depart="1016.50">
        <route edges="bottom-approaching closed-lane remerging-lane left-exit"/>
    </vehicle>
    <vehicle id="L2-CV-215" type="L2-CV-" depart="1021.25">
        <route edges="bottom-approaching closed-lane remerging-lane left-exit"/>
    </vehicle>
    <vehicle id="L2-CV-217" type="L2-CV-Right-" depart="1030.75">
        <route edges="left-long-approaching preparation left-short-approaching bottom-exit"/>
    </vehicle>
    <vehicle id="L2-CV-220" type="L2-CV-" depart="1045.00">
        <route edges="right-approaching top-exit"/>
    </vehicle>
    <vehicle id="L2-CV-222" type="L2-CV-" depart="1054.50">
        <route edges="top-approaching bottom-exit"/>
    </vehicle>
    <vehicle id="L2-CV-224" type="L2-CV-" depart="1064.00">
        <route edges="bottom-approaching top-exit"/>
    </vehicle>
    <vehicle id="L2-CV-225" type="L2-CV-" depart="1068.75">
        <route edges="top-approaching right-exit"/>
    </vehicle>
    <vehicle id="L2-CV-226" type="L2-CV-" depart="1073.50">
        <route edges="right-approaching top-exit"/>
    </vehicle>
    <vehicle id="L2-CV-227" type="L2-CV-" depart="1078.25">
        <route edges="bottom-approaching right-exit"/>
    </vehicle>
    <vehicle id="L2-CV-228" type="L2-CV-" depart="1083.00">
        <route edges="right-approaching top-exit"/>
    </vehicle>
    <vehicle id="L2-CV-230" type="L2-CV-" depart="1092.50">
        <route edges="right-approaching top-exit"/>
    </vehicle>
    <vehicle id="L2-CV-233" type="L2-CV-" depart="1106.75">
        <route edges="bottom-approaching closed-lane remerging-lane left-exit"/>
    </vehicle>
    <vehicle id="L2-CV-234" type="L2-CV-" depart="1111.50">
        <route edges="bottom-approaching top-exit"/>
    </vehicle>
    <vehicle id="L2-CV-237" type="L2-CV-Right-" depart="1125.75">
        <route edges="left-long-approaching preparation left-short-approaching bottom-exit"/>
    </vehicle>
    <vehicle id="L2-CV-238" type="L2-CV-" depart="1130.50">
        <route edges="top-approaching right-exit"/>
    </vehicle>
    <vehicle id="L2-CV-239" type="L2-CV-" depart="1135.25">
        <route edges="left-long-approaching preparation left-short-approaching right-exit"/>
    </vehicle>
    <vehicle id="L2-CV-240" type="L2-CV-" depart="1140.00">
        <route edges="right-approaching bottom-exit"/>
    </vehicle>
    <vehicle id="L2-CV-241" type="L2-CV-" depart="1144.75">
        <route edges="right-approaching closed-lane remerging-lane left-exit"/>
    </vehicle>
    <vehicle id="L2-CV-242" type="L2-CV-" depart="1149.50">
        <route edges="bottom-approaching closed-lane remerging-lane left-exit"/>
    </vehicle>
    <vehicle id="L2-CV-243" type="L2-CV-" depart="1154.25">
        <route edges="right-approaching bottom-exit"/>
    </vehicle>
    <vehicle id="L2-CV-244" type="L2-CV-" depart="1159.00">
        <route edges="right-approaching top-exit"/>
    </vehicle>
    <vehicle id="L2-CV-246" type="L2-CV-" depart="1168.50">
        <route edges="left-long-approaching preparation left-short-approaching right-exit"/>
    </vehicle>
    <vehicle id="L2-CV-247" type="L2-CV-" depart="1173.25">
        <route edges="top-approaching right-exit"/>
    </vehicle>
    <vehicle id="L2-CV-248" type="L2-CV-" depart="1178.00">
        <route edges="right-approaching bottom-exit"/>
    </vehicle>
    <vehicle id="L2-CV-249" type="L2-CV-" depart="1182.75">
        <route edges="bottom-approaching closed-lane remerging-lane left-exit"/>
    </vehicle>
    <vehicle id="L2-CV-250" type="L2-CV-" depart="1187.50">
        <route edges="right-approaching closed-lane remerging-lane left-exit"/>
    </vehicle>
    <vehicle id="L2-CV-251" type="L2-CV-" depart="1192.25">
        <route edges="right-approaching bottom-exit"/>
    </vehicle>
    <vehicle id="L2-CV-252" type="L2-CV-" depart="1197.00">
        <route edges="bottom-approaching closed-lane remerging-lane left-exit"/>
    </vehicle>
    <vehicle id="L2-CV-254" type="L2-CV-" depart="1206.50">
        <route edges="right-approaching closed-lane remerging-lane left-exit"/>
    </vehicle>
    <vehicle id="L2-CV-255" type="L2-CV-" depart="1211.25">
        <route edges="right-approaching closed-lane remerging-lane left-exit"/>
    </vehicle>
    <vehicle id="L2-CV-256" type="L2-CV-Right-" depart="1216.00">
        <route edges="left-long-approaching preparation left-short-approaching bottom-exit"/>
    </vehicle>
    <vehicle id="L2-CV-257" type="L2-CV-" depart="1220.75">
        <route edges="top-approaching bottom-exit"/>
    </vehicle>
    <vehicle id="L2-CV-259" type="L2-CV-" depart="1230.25">
        <route edges="bottom-approaching closed-lane remerging-lane left-exit"/>
    </vehicle>
    <vehicle id="L2-CV-262" type="L2-CV-" depart="1244.50">
        <route edges="bottom-approaching top-exit"/>
    </vehicle>
    <vehicle id="L2-CV-263" type="L2-CV-" depart="1249.25">
        <route edges="bottom-approaching right-exit"/>
    </vehicle>
    <vehicle id="L2-CV-264" type="L2-CV-" depart="1254.00">
        <route edges="bottom-approaching right-exit"/>
    </vehicle>
    <vehicle id="L2-CV-265" type="L2-CV-" depart="1258.75">
        <route edges="top-approaching bottom-exit"/>
    </vehicle>
    <vehicle id="L2-CV-266" type="L2-CV-" depart="1263.50">
        <route edges="top-approaching right-exit"/>
    </vehicle>
    <vehicle id="L2-CV-267" type="L2-CV-" depart="1268.25">
        <route edges="top-approaching right-exit"/>
    </vehicle>
    <vehicle id="L2-CV-268" type="L2-CV-" depart="1273.00">
        <route edges="bottom-approaching top-exit"/>
    </vehicle>
    <vehicle id="L2-CV-269" type="L2-CV-Right-" depart="1277.75">
        <route edges="left-long-approaching preparation left-short-approaching bottom-exit"/>
    </vehicle>
    <vehicle id="L2-CV-270" type="L2-CV-" depart="1282.50">
        <route edges="bottom-approaching closed-lane remerging-lane left-exit"/>
    </vehicle>
    <vehicle id="L2-CV-272" type="L2-CV-" depart="1292.00">
        <route edges="bottom-approaching closed-lane remerging-lane left-exit"/>
    </vehicle>
    <vehicle id="L2-CV-273" type="L2-CV-Left-" depart="1296.75">
        <route edges="left-long-approaching preparation"/>
    </vehicle>
    <vehicle id="L2-CV-274" type="L2-CV-" depart="1301.50">
        <route edges="bottom-approaching right-exit"/>
    </vehicle>
    <vehicle id="L2-CV-275" type="L2-CV-" depart="1306.25">
        <route edges="top-approaching bottom-exit"/>
    </vehicle>
    <vehicle id="L2-CV-276" type="L2-CV-" depart="1311.00">
        <route edges="top-approaching right-exit"/>
    </vehicle>
    <vehicle id="L2-CV-277" type="L2-CV-" depart="1315.75">
        <route edges="top-approaching closed-lane remerging-lane left-exit"/>
    </vehicle>
    <vehicle id="L2-CV-279" type="L2-CV-" depart="1325.25">
        <route edges="top-approaching right-exit"/>
    </vehicle>
    <vehicle id="L2-CV-281" type="L2-CV-Right-" depart="1334.75">
        <route edges="left-long-approaching preparation left-short-approaching bottom-exit"/>