<configuration>
    <input>
        <net-file value="../RoadworksIntersection.net.xml"/>
        <route-files value="Route-Files/L0-HDV-Route.rou.xml"/>
        <additional-files value="Additional-Files/Roadworks-Baseline-HDV-Detectors.add.xml, 
        Additional-Files/Roadworks-Baseline-HDV-Rerouters.add.xml, ../Additional-Files/Roadworks-Traffic-lights.add.xml, 
        PreparingVehicleModels/Vehicle-Models/L0-HDV.add.xml, PreparingVehicleModels/Vehicle-Models/L0-HDV-Straight.add.xml, 
        PreparingVehicleModels/Vehicle-Models/L0-HDV-Left.add.xml, ../Additional-Files/Roadworks-Traffic-Signs.add.xml"/>    
    </input>
    <time>
        <begin value="0" />
        <step-length value="0.1" /> 
    </time>
    <processing>
        <default.action-step-length value="0.1"/>
    </processing>
</configuration>
