<?xml version="1.0" ?><!-- generated on 03/29/21 22:15:32 by Eclipse SUMO duarouter Version 1.8.0
<configuration xmlns:xsi="http://www.w3.org/2001/XMLSchema-instance" xsi:noNamespaceSchemaLocation="http://sumo.dlr.de/xsd/duarouterConfiguration.xsd">

    <input>
        <net-file value="Roadworks/RoadworksIntersection.net.xml"/>
        <route-files value="trips.trips.xml"/>
    </input>

    <output>
        <output-file value="Roadworks/BaselineCAV/Route-Files/L4-CV-Route.rou.xml"/>
        <alternatives-output value="Roadworks/BaselineCAV/Route-Files/L4-CV-Route.rou.alt.xml"/>
    </output>

    <time>
        <begin value="0"/>
        <end value="3600"/>
    </time>

    <report>
        <no-warnings value="true"/>
        <ignore-errors value="true"/>
        <no-step-log value="true"/>
    </report>

</configuration>
--><routes xmlns:xsi="http://www.w3.org/2001/XMLSchema-instance" xsi:noNamespaceSchemaLocation="http://sumo.dlr.de/xsd/routes_file.xsd">
    <vehicle id="L4-CV-2" type="L4-CV-" depart="2.14">
        <route edges="right-approaching closed-lane remerging-lane left-exit"/>
    </vehicle>
    <vehicle id="L4-CV-3" type="L4-CV-" depart="3.21">
        <route edges="top-approaching closed-lane remerging-lane left-exit"/>
    </vehicle>
    <vehicle id="L4-CV-4" type="L4-CV-" depart="4.28">
        <route edges="left-long-approaching preparation left-short-approaching right-exit"/>
    </vehicle>
    <vehicle id="L4-CV-5" type="L4-CV-" depart="5.35">
        <route edges="top-approaching right-exit"/>
    </vehicle>
    <vehicle id="L4-CV-6" type="L4-CV-Left-" depart="6.42">
        <route edges="left-long-approaching preparation"/>
    </vehicle>
    <vehicle id="L4-CV-7" type="L4-CV-" depart="7.49">
        <route edges="right-approaching closed-lane remerging-lane left-exit"/>
    </vehicle>
    <vehicle id="L4-CV-10" type="L4-CV-" depart="10.70">
        <route edges="left-long-approaching preparation left-short-approaching right-exit"/>
    </vehicle>
    <vehicle id="L4-CV-11" type="L4-CV-" depart="11.77">
        <route edges="top-approaching right-exit"/>
    </vehicle>
    <vehicle id="L4-CV-12" type="L4-CV-Right-" depart="12.84">
        <route edges="left-long-approaching preparation left-short-approaching bottom-exit"/>
    </vehicle>
    <vehicle id="L4-CV-13" type="L4-CV-" depart="13.91">
        <route edges="left-long-approaching preparation left-short-approaching right-exit"/>
    </vehicle>
    <vehicle id="L4-CV-15" type="L4-CV-Left-" depart="16.05">
        <route edges="left-long-approaching preparation"/>
    </vehicle>
    <vehicle id="L4-CV-16" type="L4-CV-Left-" depart="17.12">
        <route edges="left-long-approaching preparation"/>
    </vehicle>
    <vehicle id="L4-CV-17" type="L4-CV-" depart="18.19">
        <route edges="right-approaching bottom-exit"/>
    </vehicle>
    <vehicle id="L4-CV-18" type="L4-CV-" depart="19.26">
        <route edges="right-approaching closed-lane remerging-lane left-exit"/>
    </vehicle>
    <vehicle id="L4-CV-19" type="L4-CV-" depart="20.33">
        <route edges="top-approaching right-exit"/>
    </vehicle>
    <vehicle id="L4-CV-20" type="L4-CV-" depart="21.40">
        <route edges="bottom-approaching closed-lane remerging-lane left-exit"/>
    </vehicle>
    <vehicle id="L4-CV-21" type="L4-CV-" depart="22.47">
        <route edges="top-approaching bottom-exit"/>
    </vehicle>
    <vehicle id="L4-CV-22" type="L4-CV-Left-" depart="23.54">
        <route edges="left-long-approaching preparation"/>
    </vehicle>
    <vehicle id="L4-CV-23" type="L4-CV-" depart="24.61">
        <route edges="bottom-approaching right-exit"/>
    </vehicle>
    <vehicle id="L4-CV-24" type="L4-CV-" depart="25.68">
        <route edges="bottom-approaching top-exit"/>
    </vehicle>
    <vehicle id="L4-CV-25" type="L4-CV-" depart="26.75">
        <route edges="top-approaching closed-lane remerging-lane left-exit"/>
    </vehicle>
    <vehicle id="L4-CV-26" type="L4-CV-" depart="27.82">
        <route edges="bottom-approaching closed-lane remerging-lane left-exit"/>
    </vehicle>
    <vehicle id="L4-CV-27" type="L4-CV-" depart="28.89">
        <route edges="right-approaching top-exit"/>
    </vehicle>
    <vehicle id="L4-CV-28" type="L4-CV-" depart="29.96">
        <route edges="bottom-approaching right-exit"/>
    </vehicle>
    <vehicle id="L4-CV-30" type="L4-CV-" depart="32.10">
        <route edges="top-approaching right-exit"/>
    </vehicle>
    <vehicle id="L4-CV-31" type="L4-CV-" depart="33.17">
        <route edges="top-approaching right-exit"/>
    </vehicle>
    <vehicle id="L4-CV-32" type="L4-CV-" depart="34.24">
        <route edges="right-approaching closed-lane remerging-lane left-exit"/>
    </vehicle>
    <vehicle id="L4-CV-33" type="L4-CV-" depart="35.31">
        <route edges="right-approaching closed-lane remerging-lane left-exit"/>
    </vehicle>
    <vehicle id="L4-CV-34" type="L4-CV-" depart="36.38">
        <route edges="right-approaching closed-lane remerging-lane left-exit"/>
    </vehicle>
    <vehicle id="L4-CV-37" type="L4-CV-Right-" depart="39.59">
        <route edges="left-long-approaching preparation left-short-approaching bottom-exit"/>
    </vehicle>
    <vehicle id="L4-CV-41" type="L4-CV-" depart="43.87">
        <route edges="right-approaching closed-lane remerging-lane left-exit"/>
    </vehicle>
    <vehicle id="L4-CV-42" type="L4-CV-" depart="44.94">
        <route edges="right-approaching closed-lane remerging-lane left-exit"/>
    </vehicle>
    <vehicle id="L4-CV-44" type="L4-CV-" depart="47.08">
        <route edges="top-approaching right-exit"/>
    </vehicle>
    <vehicle id="L4-CV-45" type="L4-CV-" depart="48.15">
        <route edges="top-approaching right-exit"/>
    </vehicle>
    <vehicle id="L4-CV-46" type="L4-CV-" depart="49.22">
        <route edges="left-long-approaching preparation left-short-approaching right-exit"/>
    </vehicle>
    <vehicle id="L4-CV-48" type="L4-CV-" depart="51.36">
        <route edges="top-approaching bottom-exit"/>
    </vehicle>
    <vehicle id="L4-CV-49" type="L4-CV-" depart="52.43">
        <route edges="right-approaching closed-lane remerging-lane left-exit"/>
    </vehicle>
    <vehicle id="L4-CV-50" type="L4-CV-" depart="53.50">
        <route edges="right-approaching top-exit"/>
    </vehicle>
    <vehicle id="L4-CV-51" type="L4-CV-" depart="54.57">
        <route edges="bottom-approaching right-exit"/>
    </vehicle>
    <vehicle id="L4-CV-53" type="L4-CV-" depart="56.71">
        <route edges="top-approaching closed-lane remerging-lane left-exit"/>
    </vehicle>
    <vehicle id="L4-CV-54" type="L4-CV-" depart="57.78">
        <route edges="top-approaching bottom-exit"/>
    </vehicle>
    <vehicle id="L4-CV-55" type="L4-CV-" depart="58.85">
        <route edges="bottom-approaching right-exit"/>
    </vehicle>
    <vehicle id="L4-CV-56" type="L4-CV-" depart="59.92">
        <route edges="bottom-approaching right-exit"/>
    </vehicle>
    <vehicle id="L4-CV-57" type="L4-CV-" depart="60.99">
        <route edges="top-approaching right-exit"/>
    </vehicle>
    <vehicle id="L4-CV-58" type="L4-CV-" depart="62.06">
        <route edges="right-approaching bottom-exit"/>
    </vehicle>
    <vehicle id="L4-CV-60" type="L4-CV-" depart="64.20">
        <route edges="right-approaching closed-lane remerging-lane left-exit"/>
    </vehicle>
    <vehicle id="L4-CV-61" type="L4-CV-Left-" depart="65.27">
        <route edges="left-long-approaching preparation"/>
    </vehicle>
    <vehicle id="L4-CV-63" type="L4-CV-" depart="67.41">
        <route edges="top-approaching bottom-exit"/>
    </vehicle>
    <vehicle id="L4-CV-66" type="L4-CV-" depart="70.62">
        <route edges="bottom-approaching closed-lane remerging-lane left-exit"/>
    </vehicle>
    <vehicle id="L4-CV-67" type="L4-CV-" depart="71.69">
        <route edges="bottom-approaching closed-lane remerging-lane left-exit"/>
    </vehicle>
    <vehicle id="L4-CV-68" type="L4-CV-" depart="72.76">
        <route edges="bottom-approaching right-exit"/>
    </vehicle>
    <vehicle id="L4-CV-69" type="L4-CV-Right-" depart="73.83">
        <route edges="left-long-approaching preparation left-short-approaching bottom-exit"/>
    </vehicle>
    <vehicle id="L4-CV-70" type="L4-CV-Right-" depart="74.90">
        <route edges="left-long-approaching preparation left-short-approaching bottom-exit"/>
    </vehicle>
    <vehicle id="L4-CV-71" type="L4-CV-" depart="75.97">
        <route edges="bottom-approaching top-exit"/>
    </vehicle>
    <vehicle id="L4-CV-72" type="L4-CV-" depart="77.04">
        <route edges="bottom-approaching closed-lane remerging-lane left-exit"/>
    </vehicle>
    <vehicle id="L4-CV-73" type="L4-CV-" depart="78.11">
        <route edges="right-approaching top-exit"/>
    </vehicle>
    <vehicle id="L4-CV-74" type="L4-CV-" depart="79.18">
        <route edges="top-approaching bottom-exit"/>
    </vehicle>
    <vehicle id="L4-CV-75" type="L4-CV-" depart="80.25">
        <route edges="right-approaching top-exit"/>
    </vehicle>
    <vehicle id="L4-CV-76" type="L4-CV-" depart="81.32">
        <route edges="bottom-approaching right-exit"/>
    </vehicle>
    <vehicle id="L4-CV-77" type="L4-CV-" depart="82.39">
        <route edges="top-approaching closed-lane remerging-lane left-exit"/>
    </vehicle>
    <vehicle id="L4-CV-78" type="L4-CV-" depart="83.46">
        <route edges="left-long-approaching preparation left-short-approaching right-exit"/>
    </vehicle>
    <vehicle id="L4-CV-79" type="L4-CV-Right-" depart="84.53">
        <route edges="left-long-approaching preparation left-short-approaching bottom-exit"/>
    </vehicle>
    <vehicle id="L4-CV-83" type="L4-CV-" depart="88.81">
        <route edges="top-approaching closed-lane remerging-lane left-exit"/>
    </vehicle>
    <vehicle id="L4-CV-84" type="L4-CV-" depart="89.88">
        <route edges="right-approaching bottom-exit"/>
    </vehicle>
    <vehicle id="L4-CV-85" type="L4-CV-" depart="90.95">
        <route edges="right-approaching closed-lane remerging-lane left-exit"/>
    </vehicle>
    <vehicle id="L4-CV-86" type="L4-CV-" depart="92.02">
        <route edges="bottom-approaching closed-lane remerging-lane left-exit"/>
    </vehicle>
    <vehicle id="L4-CV-87" type="L4-CV-" depart="93.09">
        <route edges="bottom-approaching top-exit"/>
    </vehicle>
    <vehicle id="L4-CV-89" type="L4-CV-Left-" depart="95.23">
        <route edges="left-long-approaching preparation"/>
    </vehicle>
    <vehicle id="L4-CV-91" type="L4-CV-" depart="97.37">
        <route edges="right-approaching closed-lane remerging-lane left-exit"/>
    </vehicle>
    <vehicle id="L4-CV-92" type="L4-CV-" depart="98.44">
        <route edges="left-long-approaching preparation left-short-approaching right-exit"/>
    </vehicle>
    <vehicle id="L4-CV-94" type="L4-CV-Right-" depart="100.58">
        <route edges="left-long-approaching preparation left-short-approaching bottom-exit"/>
    </vehicle>
    <vehicle id="L4-CV-95" type="L4-CV-" depart="101.65">
        <route edges="right-approaching closed-lane remerging-lane left-exit"/>
    </vehicle>
    <vehicle id="L4-CV-96" type="L4-CV-" depart="102.72">
        <route edges="top-approaching right-exit"/>
    </vehicle>
    <vehicle id="L4-CV-98" type="L4-CV-" depart="104.86">
        <route edges="right-approaching closed-lane remerging-lane left-exit"/>
    </vehicle>
    <vehicle id="L4-CV-99" type="L4-CV-" depart="105.93">
        <route edges="right-approaching bottom-exit"/>
    </vehicle>
    <vehicle id="L4-CV-101" type="L4-CV-" depart="108.07">
        <route edges="bottom-approaching right-exit"/>
    </vehicle>
    <vehicle id="L4-CV-102" type="L4-CV-" depart="109.14">
        <route edges="left-long-approaching preparation left-short-approaching right-exit"/>
    </vehicle>
    <vehicle id="L4-CV-105" type="L4-CV-Left-" depart="112.35">
        <route edges="left-long-approaching preparation"/>
    </vehicle>
    <vehicle id="L4-CV-107" type="L4-CV-" depart="114.49">
        <route edges="bottom-approaching top-exit"/>
    </vehicle>
    <vehicle id="L4-CV-108" type="L4-CV-" depart="115.56">
        <route edges="right-approaching bottom-exit"/>
    </vehicle>
    <vehicle id="L4-CV-109" type="L4-CV-" depart="116.63">
        <route edges="right-approaching top-exit"/>
    </vehicle>
    <vehicle id="L4-CV-110" type="L4-CV-" depart="117.70">
        <route edges="left-long-approaching preparation left-short-approaching right-exit"/>
    </vehicle>
    <vehicle id="L4-CV-111" type="L4-CV-Right-" depart="118.77">
        <route edges="left-long-approaching preparation left-short-approaching bottom-exit"/>
    </vehicle>
    <vehicle id="L4-CV-112" type="L4-CV-" depart="119.84">
        <route edges="right-approaching bottom-exit"/>
    </vehicle>
    <vehicle id="L4-CV-113" type="L4-CV-" depart="120.91">
        <route edges="top-approaching right-exit"/>
    </vehicle>
    <vehicle id="L4-CV-115" type="L4-CV-" depart="123.05">
        <route edges="right-approaching top-exit"/>
    </vehicle>
    <vehicle id="L4-CV-116" type="L4-CV-Left-" depart="124.12">
        <route edges="left-long-approaching preparation"/>
    </vehicle>
    <vehicle id="L4-CV-117" type="L4-CV-" depart="125.19">
        <route edges="bottom-approaching top-exit"/>
    </vehicle>
    <vehicle id="L4-CV-118" type="L4-CV-Right-" depart="126.26">
        <route edges="left-long-approaching preparation left-short-approaching bottom-exit"/>
    </vehicle>
    <vehicle id="L4-CV-121" type="L4-CV-" depart="129.47">
        <route edges="bottom-approaching right-exit"/>
    </vehicle>
    <vehicle id="L4-CV-122" type="L4-CV-" depart="130.54">
        <route edges="right-approaching closed-lane remerging-lane left-exit"/>
    </vehicle>
    <vehicle id="L4-CV-123" type="L4-CV-" depart="131.61">
        <route edges="top-approaching closed-lane remerging-lane left-exit"/>
    </vehicle>
    <vehicle id="L4-CV-127" type="L4-CV-" depart="135.89">
        <route edges="top-approaching bottom-exit"/>
    </vehicle>
    <vehicle id="L4-CV-130" type="L4-CV-" depart="139.10">
        <route edges="top-approaching right-exit"/>
    </vehicle>
    <vehicle id="L4-CV-131" type="L4-CV-" depart="140.17">
        <route edges="left-long-approaching preparation left-short-approaching right-exit"/>
    </vehicle>
    <vehicle id="L4-CV-132" type="L4-CV-" depart="141.24">
        <route edges="bottom-approaching right-exit"/>
    </vehicle>
    <vehicle id="L4-CV-134" type="L4-CV-Left-" depart="143.38">
        <route edges="left-long-approaching preparation"/>
    </vehicle>
    <vehicle id="L4-CV-135" type="L4-CV-" depart="144.45">
        <route edges="right-approaching closed-lane remerging-lane left-exit"/>
    </vehicle>
    <vehicle id="L4-CV-136" type="L4-CV-" depart="145.52">
        <route edges="right-approaching bottom-exit"/>
    </vehicle>
    <vehicle id="L4-CV-137" type="L4-CV-" depart="146.59">
        <route edges="bottom-approaching top-exit"/>
    </vehicle>
    <vehicle id="L4-CV-139" type="L4-CV-" depart="148.73">
        <route edges="right-approaching closed-lane remerging-lane left-exit"/>
    </vehicle>
    <vehicle id="L4-CV-140" type="L4-CV-Right-" depart="149.80">
        <route edges="left-long-approaching preparation left-short-approaching bottom-exit"/>
    </vehicle>
    <vehicle id="L4-CV-142" type="L4-CV-" depart="151.94">
        <route edges="right-approaching bottom-exit"/>
    </vehicle>
    <vehicle id="L4-CV-144" type="L4-CV-Right-" depart="154.08">
        <route edges="left-long-approaching preparation left-short-approaching bottom-exit"/>
    </vehicle>
    <vehicle id="L4-CV-145" type="L4-CV-" depart="155.15">
        <route edges="top-approaching closed-lane remerging-lane left-exit"/>
    </vehicle>
    <vehicle id="L4-CV-148" type="L4-CV-" depart="158.36">
        <route edges="right-approaching closed-lane remerging-lane left-exit"/>
    </vehicle>
    <vehicle id="L4-CV-149" type="L4-CV-" depart="159.43">
        <route edges="left-long-approaching preparation left-short-approaching right-exit"/>
    </vehicle>
    <vehicle id="L4-CV-151" type="L4-CV-" depart="161.57">
        <route edges="right-approaching closed-lane remerging-lane left-exit"/>
    </vehicle>
    <vehicle id="L4-CV-152" type="L4-CV-" depart="162.64">
        <route edges="top-approaching right-exit"/>
    </vehicle>
    <vehicle id="L4-CV-154" type="L4-CV-" depart="164.78">
        <route edges="right-approaching bottom-exit"/>
    </vehicle>
    <vehicle id="L4-CV-155" type="L4-CV-" depart="165.85">
        <route edges="bottom-approaching closed-lane remerging-lane left-exit"/>
    </vehicle>
    <vehicle id="L4-CV-156" type="L4-CV-" depart="166.92">
        <route edges="right-approaching closed-lane remerging-lane left-exit"/>
    </vehicle>
    <vehicle id="L4-CV-157" type="L4-CV-" depart="167.99">
        <route edges="left-long-approaching preparation left-short-approaching right-exit"/>
    </vehicle>
    <vehicle id="L4-CV-158" type="L4-CV-" depart="169.06">
        <route edges="right-approaching closed-lane remerging-lane left-exit"/>
    </vehicle>
    <vehicle id="L4-CV-159" type="L4-CV-Left-" depart="170.13">
        <route edges="left-long-approaching preparation"/>
    </vehicle>
    <vehicle id="L4-CV-160" type="L4-CV-Left-" depart="171.20">
        <route edges="left-long-approaching preparation"/>
    </vehicle>
    <vehicle id="L4-CV-162" type="L4-CV-" depart="173.34">
        <route edges="bottom-approaching top-exit"/>
    </vehicle>
    <vehicle id="L4-CV-163" type="L4-CV-" depart="174.41">
        <route edges="right-approaching top-exit"/>
    </vehicle>
    <vehicle id="L4-CV-164" type="L4-CV-" depart="175.48">
        <route edges="left-long-approaching preparation left-short-approaching right-exit"/>
    </vehicle>
    <vehicle id="L4-CV-165" type="L4-CV-" depart="176.55">
        <route edges="bottom-approaching closed-lane remerging-lane left-exit"/>
    </vehicle>
    <vehicle id="L4-CV-167" type="L4-CV-" depart="178.69">
        <route edges="top-approaching bottom-exit"/>
    </vehicle>
    <vehicle id="L4-CV-169" type="L4-CV-" depart="180.83">
        <route edges="left-long-approaching preparation left-short-approaching right-exit"/>
    </vehicle>
    <vehicle id="L4-CV-170" type="L4-CV-" depart="181.90">
        <route edges="bottom-approaching top-exit"/>
    </vehicle>
    <vehicle id="L4-CV-171" type="L4-CV-" depart="182.97">
        <route edges="top-approaching bottom-exit"/>
    </vehicle>
    <vehicle id="L4-CV-172" type="L4-CV-" depart="184.04">
        <route edges="left-long-approaching preparation left-short-approaching right-exit"/>
    </vehicle>
    <vehicle id="L4-CV-173" type="L4-CV-" depart="185.11">
        <route edges="top-approaching closed-lane remerging-lane left-exit"/>
    </vehicle>
    <vehicle id="L4-CV-174" type="L4-CV-" depart="186.18">
        <route edges="top-approaching closed-lane remerging-lane left-exit"/>
    </vehicle>
    <vehicle id="L4-CV-175" type="L4-CV-" depart="187.25">
        <route edges="left-long-approaching preparation"/>
    </vehicle>
    <vehicle id="L4-CV-176" type="L4-CV-" depart="188.32">
        <route edges="right-approaching bottom-exit"/>
    </vehicle>
    <vehicle id="L4-CV-177" type="L4-CV-" depart="189.39">
        <route edges="right-approaching bottom-exit"/>
    </vehicle>
    <vehicle id="L4-CV-178" type="L4-CV-Left-" depart="190.46">
        <route edges="left-long-approaching preparation"/>
    </vehicle>
    <vehicle id="L4-CV-181" type="L4-CV-Left-" depart="193.67">
        <route edges="left-long-approaching preparation"/>
    </vehicle>
    <vehicle id="L4-CV-182" type="L4-CV-" depart="194.74">
        <route edges="top-approaching right-exit"/>
    </vehicle>
    <vehicle id="L4-CV-183" type="L4-CV-" depart="195.81">
        <route edges="right-approaching top-exit"/>
    </vehicle>
    <vehicle id="L4-CV-185" type="L4-CV-" depart="197.95">
        <route edges="top-approaching bottom-exit"/>
    </vehicle>
    <vehicle id="L4-CV-187" type="L4-CV-" depart="200.09">
        <route edges="bottom-approaching top-exit"/>
    </vehicle>
    <vehicle id="L4-CV-188" type="L4-CV-Right-" depart="201.16">
        <route edges="left-long-approaching preparation left-short-approaching bottom-exit"/>
    </vehicle>
    <vehicle id="L4-CV-189" type="L4-CV-" depart="202.23">
        <route edges="bottom-approaching right-exit"/>
    </vehicle>
    <vehicle id="L4-CV-190" type="L4-CV-" depart="203.30">
        <route edges="top-approaching right-exit"/>
    </vehicle>
    <vehicle id="L4-CV-194" type="L4-CV-" depart="207.58">
        <route edges="top-approaching right-exit"/>
    </vehicle>
    <vehicle id="L4-CV-195" type="L4-CV-" depart="208.65">
        <route edges="top-approaching bottom-exit"/>
    </vehicle>
    <vehicle id="L4-CV-197" type="L4-CV-" depart="210.79">
        <route edges="top-approaching closed-lane remerging-lane left-exit"/>
    </vehicle>
    <vehicle id="L4-CV-198" type="L4-CV-" depart="211.86">
        <route edges="top-approaching closed-lane remerging-lane left-exit"/>
    </vehicle>
    <vehicle id="L4-CV-199" type="L4-CV-" depart="212.93">
        <route edges="right-approaching top-exit"/>
    </vehicle>
    <vehicle id="L4-CV-200" type="L4-CV-" depart="214.00">
        <route edges="top-approaching right-exit"/>
    </vehicle>
    <vehicle id="L4-CV-202" type="L4-CV-" depart="216.14">
        <route edges="right-approaching closed-lane remerging-lane left-exit"/>
    </vehicle>
    <vehicle id="L4-CV-203" type="L4-CV-" depart="217.21">
        <route edges="bottom-approaching top-exit"/>
    </vehicle>
    <vehicle id="L4-CV-204" type="L4-CV-" depart="218.28">
        <route edges="top-approaching closed-lane remerging-lane left-exit"/>
    </vehicle>
    <vehicle id="L4-CV-205" type="L4-CV-Left-" depart="219.35">
        <route edges="left-long-approaching preparation"/>
    </vehicle>
    <vehicle id="L4-CV-206" type="L4-CV-" depart="220.42">
        <route edges="bottom-approaching right-exit"/>
    </vehicle>
    <vehicle id="L4-CV-207" type="L4-CV-" depart="221.49">
        <route edges="bottom-approaching closed-lane remerging-lane left-exit"/>
    </vehicle>
    <vehicle id="L4-CV-208" type="L4-CV-" depart="222.56">
        <route edges="top-approaching bottom-exit"/>
    </vehicle>
    <vehicle id="L4-CV-209" type="L4-CV-" depart="223.63">
        <route edges="bottom-approaching closed-lane remerging-lane left-exit"/>
    </vehicle>
    <vehicle id="L4-CV-210" type="L4-CV-Left-" depart="224.70">
        <route edges="left-long-approaching preparation"/>
    </vehicle>
    <vehicle id="L4-CV-212" type="L4-CV-" depart="226.84">
        <route edges="bottom-approaching top-exit"/>
    </vehicle>
    <vehicle id="L4-CV-213" type="L4-CV-" depart="227.91">
        <route edges="left-long-approaching preparation left-short-approaching right-exit"/>
    </vehicle>
    <vehicle id="L4-CV-214" type="L4-CV-Right-" depart="228.98">
        <route edges="left-long-approaching preparation left-short-approaching bottom-exit"/>
    </vehicle>
    <vehicle id="L4-CV-215" type="L4-CV-Right-" depart="230.05">
        <route edges="left-long-approaching preparation left-short-approaching bottom-exit"/>
    </vehicle>
    <vehicle id="L4-CV-216" type="L4-CV-" depart="231.12">
        <route edges="bottom-approaching right-exit"/>
    </vehicle>
    <vehicle id="L4-CV-217" type="L4-CV-" depart="232.19">
        <route edges="right-approaching bottom-exit"/>
    </vehicle>
    <vehicle id="L4-CV-218" type="L4-CV-" depart="233.26">
        <route edges="right-approaching closed-lane remerging-lane left-exit"/>
    </vehicle>
    <vehicle id="L4-CV-219" type="L4-CV-Left-" depart="234.33">
        <route edges="left-long-approaching preparation"/>
    </vehicle>
    <vehicle id="L4-CV-220" type="L4-CV-Left-" depart="235.40">
        <route edges="left-long-approaching preparation"/>
    </vehicle>
    <vehicle id="L4-CV-221" type="L4-CV-" depart="236.47">
        <route edges="right-approaching closed-lane remerging-lane left-exit"/>
    </vehicle>
    <vehicle id="L4-CV-222" type="L4-CV-" depart="237.54">
        <route edges="right-approaching closed-lane remerging-lane left-exit"/>
    </vehicle>
    <vehicle id="L4-CV-223" type="L4-CV-" depart="238.61">
        <route edges="bottom-approaching right-exit"/>
    </vehicle>
    <vehicle id="L4-CV-224" type="L4-CV-" depart="239.68">
        <route edges="right-approaching top-exit"/>
    </vehicle>
    <vehicle id="L4-CV-225" type="L4-CV-" depart="240.75">
        <route edges="bottom-approaching top-exit"/>
    </vehicle>
    <vehicle id="L4-CV-227" type="L4-CV-" depart="242.89">
        <route edges="top-approaching right-exit"/>
    </vehicle>
    <vehicle id="L4-CV-228" type="L4-CV-" depart="243.96">
        <route edges="top-approaching right-exit"/>
    </vehicle>
    <vehicle id="L4-CV-229" type="L4-CV-" depart="245.03">
        <route edges="top-approaching bottom-exit"/>
    </vehicle>
    <vehicle id="L4-CV-230" type="L4-CV-" depart="246.10">
        <route edges="top-approaching closed-lane remerging-lane left-exit"/>
    </vehicle>
    <vehicle id="L4-CV-231" type="L4-CV-" depart="247.17">
        <route edges="top-approaching closed-lane remerging-lane left-exit"/>
    </vehicle>
    <vehicle id="L4-CV-232" type="L4-CV-" depart="248.24">
        <route edges="top-approaching bottom-exit"/>
    </vehicle>
    <vehicle id="L4-CV-233" type="L4-CV-" depart="249.31">
        <route edges="bottom-approaching top-exit"/>
    </vehicle>
    <vehicle id="L4-CV-234" type="L4-CV-Left-" depart="250.38">
        <route edges="left-long-approaching preparation"/>
    </vehicle>
    <vehicle id="L4-CV-235" type="L4-CV-" depart="251.45">
        <route edges="top-approaching right-exit"/>
    </vehicle>
    <vehicle id="L4-CV-236" type="L4-CV-" depart="252.52">
        <route edges="right-approaching bottom-exit"/>
    </vehicle>
    <vehicle id="L4-CV-237" type="L4-CV-" depart="253.59">
        <route edges="bottom-approaching top-exit"/>
    </vehicle>
    <vehicle id="L4-CV-239" type="L4-CV-" depart="255.73">
        <route edges="right-approaching closed-lane remerging-lane left-exit"/>
    </vehicle>
    <vehicle id="L4-CV-240" type="L4-CV-Right-" depart="256.80">
        <route edges="left-long-approaching preparation left-short-approaching bottom-exit"/>
    </vehicle>
    <vehicle id="L4-CV-241" type="L4-CV-" depart="257.87">
        <route edges="left-long-approaching preparation left-short-approaching right-exit"/>
    </vehicle>
    <vehicle id="L4-CV-243" type="L4-CV-Right-" depart="260.01">
        <route edges="left-long-approaching preparation left-short-approaching bottom-exit"/>
    </vehicle>
    <vehicle id="L4-CV-244" type="L4-CV-" depart="261.08">
        <route edges="top-approaching right-exit"/>
    </vehicle>
    <vehicle id="L4-CV-245" type="L4-CV-" depart="262.15">
        <route edges="bottom-approaching closed-lane remerging-lane left-exit"/>
    </vehicle>
    <vehicle id="L4-CV-246" type="L4-CV-" depart="263.22">
        <route edges="right-approaching bottom-exit"/>
    </vehicle>
    <vehicle id="L4-CV-248" type="L4-CV-" depart="265.36">
        <route edges="right-approaching bottom-exit"/>
    </vehicle>
    <vehicle id="L4-CV-249" type="L4-CV-" depart="266.43">
        <route edges="bottom-approaching closed-lane remerging-lane left-exit"/>
    </vehicle>
    <vehicle id="L4-CV-250" type="L4-CV-" depart="267.50">
        <route edges="bottom-approaching closed-lane remerging-lane left-exit"/>
    </vehicle>
    <vehicle id="L4-CV-251" type="L4-CV-" depart="268.57">
        <route edges="bottom-approaching top-exit"/>
    </vehicle>
    <vehicle id="L4-CV-252" type="L4-CV-" depart="269.64">
        <route edges="top-approaching bottom-exit"/>
    </vehicle>
    <vehicle id="L4-CV-253" type="L4-CV-" depart="270.71">
        <route edges="top-approaching bottom-exit"/>
    </vehicle>
    <vehicle id="L4-CV-254" type="L4-CV-" depart="271.78">
        <route edges="bottom-approaching right-exit"/>
    </vehicle>
    <vehicle id="L4-CV-255" type="L4-CV-" depart="272.85">
        <route edges="top-approaching bottom-exit"/>
    </vehicle>
    <vehicle id="L4-CV-256" type="L4-CV-" depart="273.92">
        <route edges="bottom-approaching closed-lane remerging-lane left-exit"/>
    </vehicle>
    <vehicle id="L4-CV-257" type="L4-CV-" depart="274.99">
        <route edges="bottom-approaching right-exit"/>
    </vehicle>
    <vehicle id="L4-CV-258" type="L4-CV-" depart="276.06">
        <route edges="top-approaching bottom-exit"/>
    </vehicle>
    <vehicle id="L4-CV-259" type="L4-CV-" depart="277.13">
        <route edges="bottom-approaching closed-lane remerging-lane left-exit"/>
    </vehicle>
    <vehicle id="L4-CV-260" type="L4-CV-" depart="278.20">
        <route edges="top-approaching bottom-exit"/>
    </vehicle>
    <vehicle id="L4-CV-261" type="L4-CV-" depart="279.27">
        <route edges="top-approaching closed-lane remerging-lane left-exit"/>
    </vehicle>
    <vehicle id="L4-CV-264" type="L4-CV-" depart="282.48">
        <route edges="right-approaching bottom-exit"/>
    </vehicle>
    <vehicle id="L4-CV-265" type="L4-CV-" depart="283.55">
        <route edges="top-approaching bottom-exit"/>
    </vehicle>
    <vehicle id="L4-CV-266" type="L4-CV-" depart="284.62">
        <route edges="right-approaching bottom-exit"/>
    </vehicle>
    <vehicle id="L4-CV-268" type="L4-CV-" depart="286.76">
        <route edges="top-approaching closed-lane remerging-lane left-exit"/>
    </vehicle>
    <vehicle id="L4-CV-269" type="L4-CV-" depart="287.83">
        <route edges="bottom-approaching top-exit"/>
    </vehicle>