<?xml version="1.0" ?><!-- generated on 04/13/21 19:38:12 by Eclipse SUMO duarouter Version 1.8.0
<configuration xmlns:xsi="http://www.w3.org/2001/XMLSchema-instance" xsi:noNamespaceSchemaLocation="http://sumo.dlr.de/xsd/duarouterConfiguration.xsd">

    <input>
        <net-file value="Roadworks/RoadworksIntersection.net.xml"/>
        <route-files value="trips.trips.xml"/>
    </input>

    <output>
        <output-file value="Roadworks/BaselineCAV/Route-Files/L4-CV-Route.rou.xml"/>
        <alternatives-output value="Roadworks/BaselineCAV/Route-Files/L4-CV-Route.rou.alt.xml"/>
    </output>

    <time>
        <begin value="0"/>
        <end value="3600"/>
    </time>

    <report>
        <no-warnings value="true"/>
        <ignore-errors value="true"/>
        <no-step-log value="true"/>
    </report>

</configuration>
--><routes xmlns:xsi="http://www.w3.org/2001/XMLSchema-instance" xsi:noNamespaceSchemaLocation="http://sumo.dlr.de/xsd/routes_file.xsd">
    <vehicle id="L4-CV-2" type="L4-CV-" depart="3.72">
        <route edges="right-approaching top-exit"/>
    </vehicle>
    <vehicle id="L4-CV-3" type="L4-CV-" depart="5.58">
        <route edges="bottom-approaching closed-lane remerging-lane left-exit"/>
    </vehicle>
    <vehicle id="L4-CV-4" type="L4-CV-" depart="7.44">
        <route edges="top-approaching right-exit"/>
    </vehicle>
    <vehicle id="L4-CV-5" type="L4-CV-" depart="9.30">
        <route edges="top-approaching bottom-exit"/>
    </vehicle>
    <vehicle id="L4-CV-6" type="L4-CV-Right-" depart="11.16">
        <route edges="left-long-approaching preparation left-short-approaching bottom-exit"/>
    </vehicle>
    <vehicle id="L4-CV-9" type="L4-CV-Left-" depart="16.74">
        <route edges="left-long-approaching preparation"/>
    </vehicle>
    <vehicle id="L4-CV-10" type="L4-CV-" depart="18.60">
        <route edges="top-approaching bottom-exit"/>
    </vehicle>
    <vehicle id="L4-CV-11" type="L4-CV-" depart="20.46">
        <route edges="top-approaching bottom-exit"/>
    </vehicle>
    <vehicle id="L4-CV-12" type="L4-CV-" depart="22.32">
        <route edges="right-approaching bottom-exit"/>
    </vehicle>
    <vehicle id="L4-CV-13" type="L4-CV-" depart="24.18">
        <route edges="bottom-approaching top-exit"/>
    </vehicle>
    <vehicle id="L4-CV-16" type="L4-CV-Left-" depart="29.76">
        <route edges="left-long-approaching preparation"/>
    </vehicle>
    <vehicle id="L4-CV-18" type="L4-CV-" depart="33.48">
        <route edges="bottom-approaching top-exit"/>
    </vehicle>
    <vehicle id="L4-CV-19" type="L4-CV-" depart="35.34">
        <route edges="right-approaching top-exit"/>
    </vehicle>
    <vehicle id="L4-CV-20" type="L4-CV-" depart="37.20">
        <route edges="top-approaching closed-lane remerging-lane left-exit"/>
    </vehicle>
    <vehicle id="L4-CV-21" type="L4-CV-Right-" depart="39.06">
        <route edges="left-long-approaching preparation left-short-approaching bottom-exit"/>
    </vehicle>
    <vehicle id="L4-CV-23" type="L4-CV-" depart="42.78">
        <route edges="left-long-approaching preparation left-short-approaching right-exit"/>
    </vehicle>
    <vehicle id="L4-CV-24" type="L4-CV-" depart="44.64">
        <route edges="bottom-approaching right-exit"/>
    </vehicle>
    <vehicle id="L4-CV-26" type="L4-CV-" depart="48.36">
        <route edges="top-approaching closed-lane remerging-lane left-exit"/>
    </vehicle>
    <vehicle id="L4-CV-28" type="L4-CV-" depart="52.08">
        <route edges="right-approaching bottom-exit"/>
    </vehicle>
    <vehicle id="L4-CV-29" type="L4-CV-" depart="53.94">
        <route edges="top-approaching bottom-exit"/>
    </vehicle>
    <vehicle id="L4-CV-30" type="L4-CV-" depart="55.80">
        <route edges="right-approaching top-exit"/>
    </vehicle>
    <vehicle id="L4-CV-31" type="L4-CV-" depart="57.66">
        <route edges="bottom-approaching top-exit"/>
    </vehicle>
    <vehicle id="L4-CV-32" type="L4-CV-" depart="59.52">
        <route edges="left-long-approaching preparation left-short-approaching right-exit"/>
    </vehicle>
    <vehicle id="L4-CV-34" type="L4-CV-" depart="63.24">
        <route edges="bottom-approaching top-exit"/>
    </vehicle>
    <vehicle id="L4-CV-35" type="L4-CV-" depart="65.10">
        <route edges="bottom-approaching top-exit"/>
    </vehicle>
    <vehicle id="L4-CV-38" type="L4-CV-" depart="70.68">
        <route edges="right-approaching top-exit"/>
    </vehicle>
    <vehicle id="L4-CV-39" type="L4-CV-" depart="72.54">
        <route edges="bottom-approaching right-exit"/>
    </vehicle>
    <vehicle id="L4-CV-41" type="L4-CV-" depart="76.26">
        <route edges="bottom-approaching top-exit"/>
    </vehicle>
    <vehicle id="L4-CV-42" type="L4-CV-" depart="78.12">
        <route edges="bottom-approaching closed-lane remerging-lane left-exit"/>
    </vehicle>
    <vehicle id="L4-CV-43" type="L4-CV-" depart="79.98">
        <route edges="right-approaching top-exit"/>
    </vehicle>
    <vehicle id="L4-CV-44" type="L4-CV-Left-" depart="81.84">
        <route edges="left-long-approaching preparation"/>
    </vehicle>
    <vehicle id="L4-CV-45" type="L4-CV-" depart="83.70">
        <route edges="right-approaching closed-lane remerging-lane left-exit"/>
    </vehicle>
    <vehicle id="L4-CV-46" type="L4-CV-Right-" depart="85.56">
        <route edges="left-long-approaching preparation left-short-approaching bottom-exit"/>
    </vehicle>
    <vehicle id="L4-CV-48" type="L4-CV-" depart="89.28">
        <route edges="right-approaching top-exit"/>
    </vehicle>
    <vehicle id="L4-CV-50" type="L4-CV-" depart="93.00">
        <route edges="top-approaching right-exit"/>
    </vehicle>
    <vehicle id="L4-CV-51" type="L4-CV-Right-" depart="94.86">
        <route edges="left-long-approaching preparation left-short-approaching bottom-exit"/>
    </vehicle>
    <vehicle id="L4-CV-52" type="L4-CV-" depart="96.72">
        <route edges="right-approaching top-exit"/>
    </vehicle>
    <vehicle id="L4-CV-54" type="L4-CV-" depart="100.44">
        <route edges="bottom-approaching top-exit"/>
    </vehicle>
    <vehicle id="L4-CV-55" type="L4-CV-" depart="102.30">
        <route edges="bottom-approaching closed-lane remerging-lane left-exit"/>
    </vehicle>
    <vehicle id="L4-CV-56" type="L4-CV-" depart="104.16">
        <route edges="top-approaching bottom-exit"/>
    </vehicle>
    <vehicle id="L4-CV-57" type="L4-CV-" depart="106.02">
        <route edges="right-approaching top-exit"/>
    </vehicle>
    <vehicle id="L4-CV-58" type="L4-CV-" depart="107.88">
        <route edges="right-approaching top-exit"/>
    </vehicle>
    <vehicle id="L4-CV-59" type="L4-CV-" depart="109.74">
        <route edges="bottom-approaching closed-lane remerging-lane left-exit"/>
    </vehicle>
    <vehicle id="L4-CV-60" type="L4-CV-" depart="111.60">
        <route edges="bottom-approaching top-exit"/>
    </vehicle>
    <vehicle id="L4-CV-63" type="L4-CV-" depart="117.18">
        <route edges="top-approaching closed-lane remerging-lane left-exit"/>
    </vehicle>
    <vehicle id="L4-CV-64" type="L4-CV-" depart="119.04">
        <route edges="left-long-approaching preparation left-short-approaching right-exit"/>
    </vehicle>
    <vehicle id="L4-CV-66" type="L4-CV-Right-" depart="122.76">
        <route edges="left-long-approaching preparation left-short-approaching bottom-exit"/>
    </vehicle>
    <vehicle id="L4-CV-67" type="L4-CV-Left-" depart="124.62">
        <route edges="left-long-approaching preparation"/>
    </vehicle>
    <vehicle id="L4-CV-68" type="L4-CV-" depart="126.48">
        <route edges="top-approaching right-exit"/>
    </vehicle>
    <vehicle id="L4-CV-70" type="L4-CV-" depart="130.20">
        <route edges="bottom-approaching closed-lane remerging-lane left-exit"/>
    </vehicle>
    <vehicle id="L4-CV-72" type="L4-CV-Left-" depart="133.92">
        <route edges="left-long-approaching preparation"/>
    </vehicle>
    <vehicle id="L4-CV-73" type="L4-CV-" depart="135.78">
        <route edges="top-approaching right-exit"/>
    </vehicle>
    <vehicle id="L4-CV-74" type="L4-CV-" depart="137.64">
        <route edges="right-approaching top-exit"/>
    </vehicle>
    <vehicle id="L4-CV-75" type="L4-CV-" depart="139.50">
        <route edges="left-long-approaching preparation left-short-approaching right-exit"/>
    </vehicle>
    <vehicle id="L4-CV-77" type="L4-CV-" depart="143.22">
        <route edges="top-approaching right-exit"/>
    </vehicle>
    <vehicle id="L4-CV-78" type="L4-CV-Left-" depart="145.08">
        <route edges="left-long-approaching preparation"/>
    </vehicle>
    <vehicle id="L4-CV-80" type="L4-CV-" depart="148.80">
        <route edges="bottom-approaching right-exit"/>
    </vehicle>
    <vehicle id="L4-CV-81" type="L4-CV-" depart="150.66">
        <route edges="left-long-approaching preparation left-short-approaching right-exit"/>
    </vehicle>
    <vehicle id="L4-CV-82" type="L4-CV-Left-" depart="152.52">
        <route edges="left-long-approaching preparation"/>
    </vehicle>
    <vehicle id="L4-CV-83" type="L4-CV-" depart="154.38">
        <route edges="right-approaching top-exit"/>
    </vehicle>
    <vehicle id="L4-CV-84" type="L4-CV-" depart="156.24">
        <route edges="left-long-approaching preparation left-short-approaching right-exit"/>
    </vehicle>
    <vehicle id="L4-CV-85" type="L4-CV-" depart="158.10">
        <route edges="right-approaching top-exit"/>
    </vehicle>
    <vehicle id="L4-CV-86" type="L4-CV-Left-" depart="159.96">
        <route edges="left-long-approaching preparation"/>
    </vehicle>
    <vehicle id="L4-CV-87" type="L4-CV-" depart="161.82">
        <route edges="top-approaching right-exit"/>
    </vehicle>
    <vehicle id="L4-CV-90" type="L4-CV-" depart="167.40">
        <route edges="bottom-approaching top-exit"/>
    </vehicle>
    <vehicle id="L4-CV-91" type="L4-CV-" depart="169.26">
        <route edges="top-approaching closed-lane remerging-lane left-exit"/>
    </vehicle>
    <vehicle id="L4-CV-93" type="L4-CV-" depart="172.98">
        <route edges="right-approaching bottom-exit"/>
    </vehicle>
    <vehicle id="L4-CV-94" type="L4-CV-" depart="174.84">
        <route edges="top-approaching right-exit"/>
    </vehicle>
    <vehicle id="L4-CV-95" type="L4-CV-" depart="176.70">
        <route edges="right-approaching closed-lane remerging-lane left-exit"/>
    </vehicle>
    <vehicle id="L4-CV-96" type="L4-CV-" depart="178.56">
        <route edges="right-approaching top-exit"/>
    </vehicle>
    <vehicle id="L4-CV-99" type="L4-CV-" depart="184.14">
        <route edges="left-long-approaching preparation left-short-approaching right-exit"/>
    </vehicle>
    <vehicle id="L4-CV-100" type="L4-CV-" depart="186.00">
        <route edges="bottom-approaching right-exit"/>
    </vehicle>
    <vehicle id="L4-CV-101" type="L4-CV-" depart="187.86">
        <route edges="right-approaching bottom-exit"/>
    </vehicle>
    <vehicle id="L4-CV-102" type="L4-CV-Right-" depart="189.72">
        <route edges="left-long-approaching preparation left-short-approaching bottom-exit"/>
    </vehicle>
    <vehicle id="L4-CV-104" type="L4-CV-Right-" depart="193.44">
        <route edges="left-long-approaching preparation left-short-approaching bottom-exit"/>
    </vehicle>
    <vehicle id="L4-CV-108" type="L4-CV-" depart="200.88">
        <route edges="bottom-approaching top-exit"/>
    </vehicle>
    <vehicle id="L4-CV-109" type="L4-CV-" depart="202.74">
        <route edges="bottom-approaching closed-lane remerging-lane left-exit"/>
    </vehicle>
    <vehicle id="L4-CV-111" type="L4-CV-" depart="206.46">
        <route edges="bottom-approaching top-exit"/>
    </vehicle>
    <vehicle id="L4-CV-112" type="L4-CV-Right-" depart="208.32">
        <route edges="left-long-approaching preparation left-short-approaching bottom-exit"/>
    </vehicle>
    <vehicle id="L4-CV-113" type="L4-CV-" depart="210.18">
        <route edges="right-approaching bottom-exit"/>
    </vehicle>
    <vehicle id="L4-CV-114" type="L4-CV-" depart="212.04">
        <route edges="right-approaching closed-lane remerging-lane left-exit"/>
    </vehicle>
    <vehicle id="L4-CV-115" type="L4-CV-" depart="213.90">
        <route edges="right-approaching top-exit"/>
    </vehicle>
    <vehicle id="L4-CV-116" type="L4-CV-" depart="215.76">
        <route edges="top-approaching closed-lane remerging-lane left-exit"/>
    </vehicle>
    <vehicle id="L4-CV-117" type="L4-CV-" depart="217.62">
        <route edges="top-approaching right-exit"/>
    </vehicle>
    <vehicle id="L4-CV-118" type="L4-CV-Right-" depart="219.48">
        <route edges="left-long-approaching preparation left-short-approaching bottom-exit"/>
    </vehicle>
    <vehicle id="L4-CV-121" type="L4-CV-" depart="225.06">
        <route edges="right-approaching closed-lane remerging-lane left-exit"/>
    </vehicle>
    <vehicle id="L4-CV-122" type="L4-CV-" depart="226.92">
        <route edges="top-approaching bottom-exit"/>
    </vehicle>
    <vehicle id="L4-CV-123" type="L4-CV-" depart="228.78">
        <route edges="bottom-approaching right-exit"/>
    </vehicle>
    <vehicle id="L4-CV-124" type="L4-CV-" depart="230.64">
        <route edges="right-approaching bottom-exit"/>
    </vehicle>
    <vehicle id="L4-CV-125" type="L4-CV-" depart="232.50">
        <route edges="right-approaching top-exit"/>
    </vehicle>
    <vehicle id="L4-CV-127" type="L4-CV-" depart="236.22">
        <route edges="bottom-approaching closed-lane remerging-lane left-exit"/>
    </vehicle>
    <vehicle id="L4-CV-128" type="L4-CV-" depart="238.08">
        <route edges="top-approaching closed-lane remerging-lane left-exit"/>
    </vehicle>
    <vehicle id="L4-CV-130" type="L4-CV-" depart="241.80">
        <route edges="right-approaching closed-lane remerging-lane left-exit"/>
    </vehicle>
    <vehicle id="L4-CV-131" type="L4-CV-" depart="243.66">
        <route edges="top-approaching closed-lane remerging-lane left-exit"/>
    </vehicle>
    <vehicle id="L4-CV-133" type="L4-CV-" depart="247.38">
        <route edges="top-approaching closed-lane remerging-lane left-exit"/>
    </vehicle>
    <vehicle id="L4-CV-135" type="L4-CV-" depart="251.10">
        <route edges="bottom-approaching right-exit"/>
    </vehicle>
    <vehicle id="L4-CV-138" type="L4-CV-" depart="256.68">
        <route edges="bottom-approaching right-exit"/>
    </vehicle>
    <vehicle id="L4-CV-139" type="L4-CV-Left-" depart="258.54">
        <route edges="left-long-approaching preparation"/>
    </vehicle>
    <vehicle id="L4-CV-140" type="L4-CV-" depart="260.40">
        <route edges="top-approaching bottom-exit"/>
    </vehicle>
    <vehicle id="L4-CV-141" type="L4-CV-Right-" depart="262.26">
        <route edges="left-long-approaching preparation left-short-approaching bottom-exit"/>
    </vehicle>
    <vehicle id="L4-CV-142" type="L4-CV-" depart="264.12">
        <route edges="top-approaching closed-lane remerging-lane left-exit"/>
    </vehicle>
    <vehicle id="L4-CV-143" type="L4-CV-" depart="265.98">
        <route edges="right-approaching closed-lane remerging-lane left-exit"/>
    </vehicle>
    <vehicle id="L4-CV-145" type="L4-CV-" depart="269.70">
        <route edges="right-approaching bottom-exit"/>
    </vehicle>
    <vehicle id="L4-CV-146" type="L4-CV-" depart="271.56">
        <route edges="top-approaching closed-lane remerging-lane left-exit"/>
    </vehicle>
    <vehicle id="L4-CV-147" type="L4-CV-" depart="273.42">
        <route edges="right-approaching closed-lane remerging-lane left-exit"/>
    </vehicle>
    <vehicle id="L4-CV-148" type="L4-CV-" depart="275.28">
        <route edges="left-long-approaching preparation left-short-approaching right-exit"/>
    </vehicle>
    <vehicle id="L4-CV-151" type="L4-CV-" depart="280.86">
        <route edges="bottom-approaching closed-lane remerging-lane left-exit"/>
    </vehicle>
    <vehicle id="L4-CV-152" type="L4-CV-Left-" depart="282.72">
        <route edges="left-long-approaching preparation"/>
    </vehicle>
    <vehicle id="L4-CV-153" type="L4-CV-" depart="284.58">
        <route edges="top-approaching right-exit"/>
    </vehicle>
    <vehicle id="L4-CV-154" type="L4-CV-" depart="286.44">
        <route edges="bottom-approaching top-exit"/>
    </vehicle>
    <vehicle id="L4-CV-155" type="L4-CV-" depart="288.30">
        <route edges="left-long-approaching preparation left-short-approaching right-exit"/>
    </vehicle>
    <vehicle id="L4-CV-157" type="L4-CV-Left-" depart="292.02">
        <route edges="left-long-approaching preparation"/>
    </vehicle>
    <vehicle id="L4-CV-159" type="L4-CV-" depart="295.74">
        <route edges="top-approaching bottom-exit"/>
    </vehicle>
    <vehicle id="L4-CV-160" type="L4-CV-Left-" depart="297.60">
        <route edges="left-long-approaching preparation"/>
    </vehicle>
    <vehicle id="L4-CV-161" type="L4-CV-" depart="299.46">
        <route edges="bottom-approaching top-exit"/>
    </vehicle>
    <vehicle id="L4-CV-162" type="L4-CV-" depart="301.32">
        <route edges="right-approaching closed-lane remerging-lane left-exit"/>
    </vehicle>
    <vehicle id="L4-CV-163" type="L4-CV-Left-" depart="303.18">
        <route edges="left-long-approaching preparation"/>
    </vehicle>
    <vehicle id="L4-CV-164" type="L4-CV-" depart="305.04">
        <route edges="top-approaching bottom-exit"/>
    </vehicle>
    <vehicle id="L4-CV-165" type="L4-CV-" depart="306.90">
        <route edges="left-long-approaching preparation left-short-approaching right-exit"/>
    </vehicle>
    <vehicle id="L4-CV-167" type="L4-CV-" depart="310.62">
        <route edges="bottom-approaching right-exit"/>
    </vehicle>
    <vehicle id="L4-CV-168" type="L4-CV-" depart="312.48">
        <route edges="top-approaching bottom-exit"/>
    </vehicle>
    <vehicle id="L4-CV-169" type="L4-CV-" depart="314.34">
        <route edges="bottom-approaching top-exit"/>
    </vehicle>
    <vehicle id="L4-CV-170" type="L4-CV-" depart="316.20">
        <route edges="top-approaching right-exit"/>
    </vehicle>
    <vehicle id="L4-CV-171" type="L4-CV-" depart="318.06">
        <route edges="bottom-approaching right-exit"/>
    </vehicle>
    <vehicle id="L4-CV-173" type="L4-CV-" depart="321.78">
        <route edges="right-approaching bottom-exit"/>
    </vehicle>
    <vehicle id="L4-CV-174" type="L4-CV-" depart="323.64">
        <route edges="top-approaching bottom-exit"/>
    </vehicle>
    <vehicle id="L4-CV-175" type="L4-CV-" depart="325.50">
        <route edges="right-approaching top-exit"/>
    </vehicle>
    <vehicle id="L4-CV-176" type="L4-CV-" depart="327.36">
        <route edges="right-approaching bottom-exit"/>
    </vehicle>
    <vehicle id="L4-CV-177" type="L4-CV-Left-" depart="329.22">
        <route edges="left-long-approaching preparation"/>
    </vehicle>
    <vehicle id="L4-CV-178" type="L4-CV-" depart="331.08">
        <route edges="bottom-approaching right-exit"/>
    </vehicle>
    <vehicle id="L4-CV-179" type="L4-CV-Right-" depart="332.94">
        <route edges="left-long-approaching preparation left-short-approaching bottom-exit"/>
    </vehicle>
    <vehicle id="L4-CV-180" type="L4-CV-" depart="334.80">
        <route edges="right-approaching bottom-exit"/>
    </vehicle>
    <vehicle id="L4-CV-181" type="L4-CV-" depart="336.66">
        <route edges="bottom-approaching closed-lane remerging-lane left-exit"/>
    </vehicle>
    <vehicle id="L4-CV-184" type="L4-CV-" depart="342.24">
        <route edges="top-approaching bottom-exit"/>
    </vehicle>
    <vehicle id="L4-CV-186" type="L4-CV-" depart="345.96">
        <route edges="right-approaching closed-lane remerging-lane left-exit"/>
    </vehicle>
    <vehicle id="L4-CV-187" type="L4-CV-" depart="347.82">
        <route edges="top-approaching closed-lane remerging-lane left-exit"/>
    </vehicle>
    <vehicle id="L4-CV-188" type="L4-CV-" depart="349.68">
        <route edges="bottom-approaching right-exit"/>
    </vehicle>
    <vehicle id="L4-CV-189" type="L4-CV-" depart="351.54">
        <route edges="bottom-approaching right-exit"/>
    </vehicle>
    <vehicle id="L4-CV-190" type="L4-CV-" depart="353.40">
        <route edges="right-approaching top-exit"/>
    </vehicle>
    <vehicle id="L4-CV-192" type="L4-CV-" depart="357.12">
        <route edges="left-long-approaching preparation left-short-approaching right-exit"/>
    </vehicle>
    <vehicle id="L4-CV-193" type="L4-CV-" depart="358.98">
        <route edges="left-long-approaching preparation left-short-approaching right-exit"/>
    </vehicle>
    <vehicle id="L4-CV-194" type="L4-CV-" depart="360.84">
        <route edges="right-approaching bottom-exit"/>
    </vehicle>
    <vehicle id="L4-CV-195" type="L4-CV-" depart="362.70">
        <route edges="bottom-approaching closed-lane remerging-lane left-exit"/>
    </vehicle>
    <vehicle id="L4-CV-196" type="L4-CV-" depart="364.56">
        <route edges="right-approaching bottom-exit"/>
    </vehicle>
    <vehicle id="L4-CV-198" type="L4-CV-" depart="368.28">
        <route edges="bottom-approaching right-exit"/>
    </vehicle>
    <vehicle id="L4-CV-200" type="L4-CV-" depart="372.00">
        <route edges="right-approaching bottom-exit"/>
    </vehicle>
    <vehicle id="L4-CV-201" type="L4-CV-" depart="373.86">
        <route edges="top-approaching closed-lane remerging-lane left-exit"/>
    </vehicle>
    <vehicle id="L4-CV-202" type="L4-CV-Left-" depart="375.72">
        <route edges="left-long-approaching preparation"/>
    </vehicle>
    <vehicle id="L4-CV-203" type="L4-CV-" depart="377.58">
        <route edges="bottom-approaching right-exit"/>
    </vehicle>
    <vehicle id="L4-CV-205" type="L4-CV-" depart="381.30">
        <route edges="top-approaching right-exit"/>
    </vehicle>
    <vehicle id="L4-CV-207" type="L4-CV-" depart="385.02">
        <route edges="top-approaching right-exit"/>
    </vehicle>
    <vehicle id="L4-CV-208" type="L4-CV-" depart="386.88">
        <route edges="top-approaching bottom-exit"/>
    </vehicle>
    <vehicle id="L4-CV-209" type="L4-CV-" depart="388.74">
        <route edges="right-approaching closed-lane remerging-lane left-exit"/>
    </vehicle>
    <vehicle id="L4-CV-210" type="L4-CV-" depart="390.60">
        <route edges="bottom-approaching closed-lane remerging-lane left-exit"/>
    </vehicle>
    <vehicle id="L4-CV-211" type="L4-CV-" depart="392.46">
        <route edges="right-approaching closed-lane remerging-lane left-exit"/>
    </vehicle>
    <vehicle id="L4-CV-212" type="L4-CV-Right-" depart="394.32">
        <route edges="left-long-approaching preparation left-short-approaching bottom-exit"/>
    </vehicle>
    <vehicle id="L4-CV-213" type="L4-CV-" depart="396.18">
        <route edges="top-approaching right-exit"/>
    </vehicle>
    <vehicle id="L4-CV-214" type="L4-CV-" depart="398.04">
        <route edges="top-approaching closed-lane remerging-lane left-exit"/>
    </vehicle>
    <vehicle id="L4-CV-215" type="L4-CV-" depart="399.90">
        <route edges="top-approaching right-exit"/>
    </vehicle>
    <vehicle id="L4-CV-217" type="L4-CV-" depart="403.62">
        <route edges="right-approaching closed-lane remerging-lane left-exit"/>
    </vehicle>
    <vehicle id="L4-CV-220" type="L4-CV-" depart="409.20">
        <route edges="top-approaching closed-lane remerging-lane left-exit"/>
    </vehicle>
    <vehicle id="L4-CV-221" type="L4-CV-" depart="411.06">
        <route edges="top-approaching bottom-exit"/>
    </vehicle>
    <vehicle id="L4-CV-222" type="L4-CV-Left-" depart="412.92">
        <route edges="left-long-approaching preparation"/>
    </vehicle>
    <vehicle id="L4-CV-223" type="L4-CV-" depart="414.78">
        <route edges="right-approaching closed-lane remerging-lane left-exit"/>
    </vehicle>
    <vehicle id="L4-CV-224" type="L4-CV-Right-" depart="416.64">
        <route edges="left-long-approaching preparation left-short-approaching bottom-exit"/>
    </vehicle>
    <vehicle id="L4-CV-227" type="L4-CV-" depart="422.22">
        <route edges="top-approaching bottom-exit"/>
    </vehicle>
    <vehicle id="L4-CV-229" type="L4-CV-" depart="425.94">
        <route edges="bottom-approaching closed-lane remerging-lane left-exit"/>
    </vehicle>
    <vehicle id="L4-CV-230" type="L4-CV-" depart="427.80">
        <route edges="bottom-approaching closed-lane remerging-lane left-exit"/>
    </vehicle>
    <vehicle id="L4-CV-231" type="L4-CV-" depart="429.66">
        <route edges="bottom-approaching top-exit"/>
    </vehicle>
    <vehicle id="L4-CV-232" type="L4-CV-Left-" depart="431.52">
        <route edges="left-long-approaching preparation"/>
    </vehicle>
    <vehicle id="L4-CV-234" type="L4-CV-Left-" depart="435.24">
        <route edges="left-long-approaching preparation"/>
    </vehicle>
    <vehicle id="L4-CV-235" type="L4-CV-" depart="437.10">
        <route edges="bottom-approaching right-exit"/>
    </vehicle>
    <vehicle id="L4-CV-236" type="L4-CV-" depart="438.96">
        <route edges="left-long-approaching preparation left-short-approaching right-exit"/>
    </vehicle>
    <vehicle id="L4-CV-237" type="L4-CV-" depart="440.82">
        <route edges="right-approaching bottom-exit"/>
    </vehicle>
    <vehicle id="L4-CV-240" type="L4-CV-Left-" depart="446.40">
        <route edges="left-long-approaching preparation"/>
    </vehicle>
    <vehicle id="L4-CV-245" type="L4-CV-" depart="455.70">
        <route edges="right-approaching top-exit"/>
    </vehicle>
    <vehicle id="L4-CV-246" type="L4-CV-" depart="457.56">
        <route edges="right-approaching closed-lane remerging-lane left-exit"/>
    </vehicle>
    <vehicle id="L4-CV-247" type="L4-CV-" depart="459.42">
        <route edges="top-approaching bottom-exit"/>
    </vehicle>
    <vehicle id="L4-CV-248" type="L4-CV-" depart="461.28">
        <route edges="bottom-approaching top-exit"/>
    </vehicle>
    <vehicle id="L4-CV-249" type="L4-CV-Right-" depart="463.14">
        <route edges="left-long-approaching preparation left-short-approaching bottom-exit"/>
    </vehicle>
    <vehicle id="L4-CV-250" type="L4-CV-" depart="465.00">
        <route edges="right-approaching top-exit"/>
    </vehicle>
    <vehicle id="L4-CV-251" type="L4-CV-" depart="466.86">
        <route edges="right-approaching closed-lane remerging-lane left-exit"/>
    </vehicle>
    <vehicle id="L4-CV-253" type="L4-CV-" depart="470.58">
        <route edges="top-approaching closed-lane remerging-lane left-exit"/>
    </vehicle>
    <vehicle id="L4-CV-254" type="L4-CV-" depart="472.44">
        <route edges="top-approaching bottom-exit"/>
    </vehicle>
    <vehicle id="L4-CV-256" type="L4-CV-Right-" depart="476.16">
        <route edges="left-long-approaching preparation left-short-approaching bottom-exit"/>
    </vehicle>
    <vehicle id="L4-CV-258" type="L4-CV-Right-" depart="479.88">
        <route edges="left-long-approaching preparation left-short-approaching bottom-exit"/>
    </vehicle>
    <vehicle id="L4-CV-259" type="L4-CV-" depart="481.74">
        <route edges="bottom-approaching top-exit"/>
    </vehicle>
    <vehicle id="L4-CV-260" type="L4-CV-" depart="483.60">
        <route edges="bottom-approaching right-exit"/>
    </vehicle>
    <vehicle id="L4-CV-261" type="L4-CV-" depart="485.46">
        <route edges="left-long-approaching preparation left-short-approaching right-exit"/>
    </vehicle>
    <vehicle id="L4-CV-262" type="L4-CV-" depart="487.32">
        <route edges="bottom-approaching closed-lane remerging-lane left-exit"/>
    </vehicle>
    <vehicle id="L4-CV-263" type="L4-CV-" depart="489.18">
        <route edges="bottom-approaching right-exit"/>
    </vehicle>
    <vehicle id="L4-CV-264" type="L4-CV-" depart="491.04">
        <route edges="top-approaching right-exit"/>
    </vehicle>
    <vehicle id="L4-CV-265" type="L4-CV-" depart="492.90">
        <route edges="top-approaching bottom-exit"/>
    </vehicle>
    <vehicle id="L4-CV-266" type="L4-CV-" depart="494.76">
        <route edges="bottom-approaching right-exit"/>
    </vehicle>
    <vehicle id="L4-CV-267" type="L4-CV-" depart="496.62">
        <route edges="left-long-approaching preparation left-short-approaching right-exit"/>
    </vehicle>
    <vehicle id="L4-CV-268" type="L4-CV-" depart="498.48">
        <route edges="left-long-approaching preparation left-short-approaching right-exit"/>
    </vehicle>
    <vehicle id="L4-CV-269" type="L4-CV-" depart="500.34">
        <route edges="right-approaching top-exit"/>
    </vehicle>
    <vehicle id="L4-CV-271" type="L4-CV-" depart="504.06">
        <route edges="top-approaching bottom-exit"/>
    </vehicle>
    <vehicle id="L4-CV-272" type="L4-CV-" depart="505.92">
        <route edges="bottom-approaching closed-lane remerging-lane left-exit"/>
    </vehicle>
    <vehicle id="L4-CV-273" type="L4-CV-" depart="507.78">
        <route edges="bottom-approaching top-exit"/>
    </vehicle>
    <vehicle id="L4-CV-274" type="L4-CV-" depart="509.64">
        <route edges="top-approaching closed-lane remerging-lane left-exit"/>
    </vehicle>
    <vehicle id="L4-CV-277" type="L4-CV-" depart="515.22">
        <route edges="left-long-approaching preparation left-short-approaching right-exit"/>
    </vehicle>
    <vehicle id="L4-CV-279" type="L4-CV-" depart="518.94">
        <route edges="right-approaching bottom-exit"/>
    </vehicle>
    <vehicle id="L4-CV-280" type="L4-CV-" depart="520.80">
        <route edges="bottom-approaching closed-lane remerging-lane left-exit"/>
    </vehicle>
    <vehicle id="L4-CV-281" type="L4-CV-Right-" depart="522.66">
        <route edges="left-long-approaching preparation left-short-approaching bottom-exit"/>
    </vehicle>
    <vehicle id="L4-CV-283" type="L4-CV-" depart="526.38">
        <route edges="top-approaching right-exit"/>
    </vehicle>