<additional>
    <!-- <e1Detector id="det_0" lane="preparation_2" pos="90" freq="1000" file="left-approaching.out.xml"/>
    <e1Detector id="det_1" lane="preparation_2" pos="125" freq="1000" file="left-approaching.out.xml"/>
    <e1Detector id="det_2" lane="preparation_1" pos="125" freq="1000" file="left-short-approaching.out.xml"/>
    <e1Detector id="det_3" lane="preparation_0" pos="120" freq="1000" file="left-short-approaching.out.xml"/>

    <e1Detector id="det_4" lane="top-approaching_0" pos="475" freq="1000" file="left-approaching.out.xml"/>
    <e1Detector id="det_5" lane="right-approaching_1" pos="475" freq="1000" file="left-short-approaching.out.xml"/>
    <e1Detector id="det_6" lane="bottom-approaching_2" pos="475" freq="1000" file="left-short-approaching.out.xml"/> -->

    <!-- <e1Detector id="det_7" lane="top-approaching_0" pos="445" freq="1000" file="left-approaching.out.xml"/>
    <e1Detector id="det_9" lane="right-approaching_1" pos="445" freq="1000" file="left-short-approaching.out.xml"/>
    <e1Detector id="det_10" lane="bottom-approaching_2" pos="445" freq="1000" file="left-short-approaching.out.xml"/>
    <e1Detector id="det_11" lane="top-approaching_0" pos="445" freq="1000" file="left-approaching.out.xml"/>
    <e1Detector id="det_12" lane="right-approaching_1" pos="445" freq="1000" file="left-short-approaching.out.xml"/>
    <e1Detector id="det_13" lane="bottom-approaching_2" pos="445" freq="1000" file="left-short-approaching.out.xml"/> -->

    <e1Detector id="left-exit_0" lane="left-exit_0" pos="5" freq="1000" file="left-approaching.out.xml"/>
    <e1Detector id="left-exit_1" lane="left-exit_1" pos="5" freq="1000" file="left-approaching.out.xml"/>

    <e1Detector id="close-top-approaching_0" lane="top-approaching_0" pos="490" freq="1000" file="left-approaching.out.xml"/>
    <e1Detector id="close-right-approaching_1" lane="right-approaching_1" pos="490" freq="1000" file="left-short-approaching.out.xml"/>
    <e1Detector id="close-bottom-approaching_2" lane="bottom-approaching_2" pos="490" freq="1000" file="left-short-approaching.out.xml"/>
</additional>