<?xml version="1.0" encoding="UTF-8"?>

<!-- generated on 03/24/21 21:11:30 by Eclipse SUMO GUI Version 1.8.0
<configuration xmlns:xsi="http://www.w3.org/2001/XMLSchema-instance" xsi:noNamespaceSchemaLocation="http://sumo.dlr.de/xsd/sumoConfiguration.xsd">

    <input>
        <net-file value="Roadworks\BaselinePenetration2\../RoadworksIntersection.net.xml"/>
        <route-files value="Roadworks\BaselinePenetration2\Route-Files/L4-CV-Route.rou.xml,Roadworks\BaselinePenetration2\Route-Files/L4-AV-Route.rou.xml,Roadworks\BaselinePenetration2\Route-Files/L2-CV-Route.rou.xml,Roadworks\BaselinePenetration2\Route-Files/L2-AV-Route.rou.xml,Roadworks\BaselinePenetration2\Route-Files/L0-HDV-Route.rou.xml"/>
        <additional-files value="Roadworks\BaselinePenetration2\../Additional-Files/Roadworks-Detectors.add.xml,Roadworks\BaselinePenetration2\../Additional-Files/Roadworks-Rerouters.add.xml,Roadworks\BaselinePenetration2\../Additional-Files/Roadworks-Traffic-lights.add.xml,Roadworks\BaselinePenetration2\../Additional-Files/Roadworks-Traffic-Signs.add.xml,Roadworks\BaselinePenetration2\PreparingVehicleModels/Vehicle-Models/L4-CV.add.xml,Roadworks\BaselinePenetration2\PreparingVehicleModels/Vehicle-Models/L4-CV-Left.add.xml,Roadworks\BaselinePenetration2\PreparingVehicleModels/Vehicle-Models/L4-CV-Right.add.xml,Roadworks\BaselinePenetration2\PreparingVehicleModels/Vehicle-Models/L4-AV.add.xml,Roadworks\BaselinePenetration2\PreparingVehicleModels/Vehicle-Models/L4-AV-Left.add.xml,Roadworks\BaselinePenetration2\PreparingVehicleModels/Vehicle-Models/L4-AV-Right.add.xml,Roadworks\BaselinePenetration2\PreparingVehicleModels/Vehicle-Models/L2-CV.add.xml,Roadworks\BaselinePenetration2\PreparingVehicleModels/Vehicle-Models/L2-CV-Left.add.xml,Roadworks\BaselinePenetration2\PreparingVehicleModels/Vehicle-Models/L2-CV-Right.add.xml,Roadworks\BaselinePenetration2\PreparingVehicleModels/Vehicle-Models/L2-AV.add.xml,Roadworks\BaselinePenetration2\PreparingVehicleModels/Vehicle-Models/L2-AV-Left.add.xml,Roadworks\BaselinePenetration2\PreparingVehicleModels/Vehicle-Models/L2-AV-Right.add.xml,Roadworks\BaselinePenetration2\PreparingVehicleModels/Vehicle-Models/L0-HDV.add.xml,Roadworks\BaselinePenetration2\PreparingVehicleModels/Vehicle-Models/L0-HDV-Left.add.xml,Roadworks\BaselinePenetration2\PreparingVehicleModels/Vehicle-Models/L0-HDV-Straight.add.xml"/>
    </input>

    <output>
        <tripinfo-output value="Roadworks\BaselinePenetration2\Output-Files\TripInfo.xml"/>
    </output>

    <time>
        <begin value="0"/>
        <step-length value="0.1"/>
    </time>

    <processing>
        <ignore-route-errors value="true"/>
        <waiting-time-memory value="300"/>
        <default.action-step-length value="0.1"/>
    </processing>

    <report>
        <no-warnings value="true"/>
    </report>

    <emissions>
        <device.emissions.probability value="1"/>
    </emissions>

    <traci_server>
        <remote-port value="52326"/>
    </traci_server>

    <gui_only>
        <quit-on-end value="true"/>
        <start value="true"/>
        <tracker-interval value="0.1"/>
    </gui_only>

</configuration>
-->

<tripinfos xmlns:xsi="http://www.w3.org/2001/XMLSchema-instance" xsi:noNamespaceSchemaLocation="http://sumo.dlr.de/xsd/tripinfo_file.xsd">
    <tripinfo id="L4-AV-1" depart="9.00" departLane="right-approaching_0" departPos="5.10" departSpeed="0.00" departDelay="0.00" arrival="83.50" arrivalLane="bottom-exit_1" arrivalPos="489.60" arrivalSpeed="20.01" duration="74.50" routeLength="992.90" waitingTime="1.90" waitingCount="1" stopTime="0.00" timeLoss="24.07" rerouteNo="0" devices="tripinfo_L4-AV-1 emissions_L4-AV-1 ssm_L4-AV-1 toc_L4-AV-1 driverstateL4-AV-1" vType="L4-AV-0@L4-AV-1" speedFactor="1.20" vaporized="">
        <emissions CO_abs="3975.613497" CO2_abs="288466.217345" HC_abs="23.676902" PMx_abs="4.706657" NOx_abs="109.585992" fuel_abs="123.999863" electricity_abs="0"/>
    </tripinfo>
    <tripinfo id="L2-CV-1" depart="12.90" departLane="right-approaching_0" departPos="5.10" departSpeed="0.00" departDelay="3.90" arrival="88.40" arrivalLane="bottom-exit_0" arrivalPos="489.60" arrivalSpeed="16.85" duration="75.50" routeLength="992.90" waitingTime="0.00" waitingCount="0" stopTime="0.00" timeLoss="15.56" rerouteNo="0" devices="tripinfo_L2-CV-1 emissions_L2-CV-1 ssm_L2-CV-1 toc_L2-CV-1 driverstateL2-CV-1" vType="L2-CV-32@L2-CV-1" speedFactor="1.01" vaporized="">
        <emissions CO_abs="2718.007787" CO2_abs="249391.662471" HC_abs="15.705944" PMx_abs="3.342924" NOx_abs="90.428080" fuel_abs="107.203494" electricity_abs="0"/>
    </tripinfo>
    <tripinfo id="L2-CV-0" depart="3.60" departLane="left-long-approaching_0" departPos="5.10" departSpeed="0.00" departDelay="3.60" arrival="96.50" arrivalLane="bottom-exit_0" arrivalPos="489.60" arrivalSpeed="16.59" duration="92.90" routeLength="1383.54" waitingTime="0.00" waitingCount="0" stopTime="0.00" timeLoss="7.04" rerouteNo="0" devices="tripinfo_L2-CV-0 emissions_L2-CV-0 ssm_L2-CV-0 toc_L2-CV-0 driverstateL2-CV-0" vType="L2-CV-Right-28@L2-CV-0" speedFactor="1.00" vaporized="">
        <emissions CO_abs="1944.252328" CO2_abs="290970.347440" HC_abs="11.480252" PMx_abs="3.276309" NOx_abs="99.365083" fuel_abs="125.076399" electricity_abs="0"/>
    </tripinfo>
    <tripinfo id="L4-AV-2" depart="18.00" departLane="right-approaching_0" departPos="5.10" departSpeed="0.00" departDelay="0.00" arrival="107.40" arrivalLane="left-exit_0" arrivalPos="831.00" arrivalSpeed="18.01" duration="89.40" routeLength="1399.16" waitingTime="0.00" waitingCount="0" stopTime="0.00" timeLoss="9.82" rerouteNo="0" devices="tripinfo_L4-AV-2 emissions_L4-AV-2 ssm_L4-AV-2 toc_L4-AV-2 driverstateL4-AV-2" vType="L4-AV-22@L4-AV-2" speedFactor="1.08" vaporized="">
        <emissions CO_abs="2416.850466" CO2_abs="294971.101050" HC_abs="14.772308" PMx_abs="3.999690" NOx_abs="104.910168" fuel_abs="126.795726" electricity_abs="0"/>
    </tripinfo>
    <tripinfo id="L0-HDV-2" depart="36.00" departLane="right-approaching_0" departPos="5.10" departSpeed="0.00" departDelay="0.00" arrival="109.70" arrivalLane="bottom-exit_1" arrivalPos="489.60" arrivalSpeed="15.00" duration="73.70" routeLength="992.90" waitingTime="0.00" waitingCount="0" stopTime="0.00" timeLoss="6.45" rerouteNo="0" devices="tripinfo_L0-HDV-2 emissions_L0-HDV-2 ssm_L0-HDV-2" vType="L0-HDV-93@L0-HDV-2" speedFactor="0.90" vaporized="">
        <emissions CO_abs="2954.660513" CO2_abs="227168.805063" HC_abs="18.753369" PMx_abs="4.047150" NOx_abs="91.810828" fuel_abs="97.649757" electricity_abs="0"/>
    </tripinfo>
    <tripinfo id="L4-AV-0" depart="0.00" departLane="left-long-approaching_0" departPos="5.10" departSpeed="0.00" departDelay="0.00" arrival="110.10" arrivalLane="bottom-exit_0" arrivalPos="489.60" arrivalSpeed="13.99" duration="110.10" routeLength="1383.54" waitingTime="0.00" waitingCount="0" stopTime="0.00" timeLoss="8.21" rerouteNo="0" devices="tripinfo_L4-AV-0 emissions_L4-AV-0 ssm_L4-AV-0 toc_L4-AV-0 driverstateL4-AV-0" vType="L4-AV-Right-37@L4-AV-0" speedFactor="0.84" vaporized="">
        <emissions CO_abs="2055.008175" CO2_abs="292527.113923" HC_abs="13.542150" PMx_abs="2.712239" NOx_abs="99.035676" fuel_abs="125.746597" electricity_abs="0"/>
    </tripinfo>
    <tripinfo id="L4-CV-1" depart="6.50" departLane="left-long-approaching_0" departPos="5.10" departSpeed="0.00" departDelay="1.85" arrival="111.30" arrivalLane="bottom-exit_1" arrivalPos="489.60" arrivalSpeed="16.26" duration="104.80" routeLength="1383.54" waitingTime="0.00" waitingCount="0" stopTime="0.00" timeLoss="17.08" rerouteNo="0" devices="tripinfo_L4-CV-1 emissions_L4-CV-1 ssm_L4-CV-1 toc_L4-CV-1 driverstateL4-CV-1" vType="L4-CV-Right-44@L4-CV-1" speedFactor="0.98" vaporized="">
        <emissions CO_abs="1916.396134" CO2_abs="182336.825620" HC_abs="11.922794" PMx_abs="2.508021" NOx_abs="67.426848" fuel_abs="78.379201" electricity_abs="0"/>
    </tripinfo>
    <tripinfo id="L4-CV-5" depart="23.30" departLane="right-approaching_0" departPos="5.10" departSpeed="0.00" departDelay="0.05" arrival="116.30" arrivalLane="left-exit_0" arrivalPos="831.00" arrivalSpeed="18.26" duration="93.00" routeLength="1399.16" waitingTime="0.00" waitingCount="0" stopTime="0.00" timeLoss="14.49" rerouteNo="0" devices="tripinfo_L4-CV-5 emissions_L4-CV-5 ssm_L4-CV-5 toc_L4-CV-5 driverstateL4-CV-5" vType="L4-CV-24@L4-CV-5" speedFactor="1.10" vaporized="">
        <emissions CO_abs="2583.520200" CO2_abs="275095.304490" HC_abs="15.699293" PMx_abs="3.824870" NOx_abs="99.165725" fuel_abs="118.252096" electricity_abs="0"/>
    </tripinfo>
    <tripinfo id="L2-CV-2" depart="18.10" departLane="right-approaching_0" departPos="5.10" departSpeed="0.00" departDelay="0.10" arrival="119.60" arrivalLane="left-exit_0" arrivalPos="831.00" arrivalSpeed="16.26" duration="101.50" routeLength="1399.16" waitingTime="0.00" waitingCount="0" stopTime="0.00" timeLoss="13.58" rerouteNo="0" devices="tripinfo_L2-CV-2 emissions_L2-CV-2 ssm_L2-CV-2 toc_L2-CV-2 driverstateL2-CV-2" vType="L0-HDV-77@L2-CV-2" speedFactor="0.98" vaporized="">
        <emissions CO_abs="2973.251228" CO2_abs="278123.611759" HC_abs="18.597536" PMx_abs="3.966592" NOx_abs="103.308408" fuel_abs="119.553955" electricity_abs="0"/>
    </tripinfo>
    <tripinfo id="L4-CV-4" depart="18.60" departLane="top-approaching_0" departPos="5.10" departSpeed="0.00" departDelay="0.00" arrival="143.40" arrivalLane="bottom-exit_0" arrivalPos="489.60" arrivalSpeed="15.86" duration="124.80" routeLength="995.17" waitingTime="50.70" waitingCount="1" stopTime="0.00" timeLoss="61.94" rerouteNo="0" devices="tripinfo_L4-CV-4 emissions_L4-CV-4 ssm_L4-CV-4 toc_L4-CV-4 driverstateL4-CV-4" vType="L4-CV-41@L4-CV-4" speedFactor="0.95" vaporized="">
        <emissions CO_abs="10513.491379" CO2_abs="365595.018647" HC_abs="53.523910" PMx_abs="6.254084" NOx_abs="143.804715" fuel_abs="157.158078" electricity_abs="0"/>
    </tripinfo>
    <tripinfo id="L0-HDV-0" depart="0.00" departLane="bottom-approaching_0" departPos="5.10" departSpeed="0.00" departDelay="0.00" arrival="144.10" arrivalLane="right-exit_0" arrivalPos="486.40" arrivalSpeed="15.92" duration="144.10" routeLength="979.93" waitingTime="69.10" waitingCount="1" stopTime="0.00" timeLoss="81.59" rerouteNo="0" devices="tripinfo_L0-HDV-0 emissions_L0-HDV-0 ssm_L0-HDV-0" vType="L0-HDV-88@L0-HDV-0" speedFactor="0.96" vaporized="">
        <emissions CO_abs="14157.025710" CO2_abs="387487.650229" HC_abs="73.305802" PMx_abs="7.882714" NOx_abs="163.553000" fuel_abs="166.569915" electricity_abs="0"/>
    </tripinfo>
    <tripinfo id="L4-CV-9" depart="41.90" departLane="top-approaching_0" departPos="5.10" departSpeed="0.00" departDelay="0.05" arrival="145.10" arrivalLane="bottom-exit_1" arrivalPos="489.60" arrivalSpeed="17.34" duration="103.20" routeLength="995.17" waitingTime="22.70" waitingCount="20" stopTime="0.00" timeLoss="45.83" rerouteNo="0" devices="tripinfo_L4-CV-9 emissions_L4-CV-9 ssm_L4-CV-9 toc_L4-CV-9 driverstateL4-CV-9" vType="L4-CV-16@L4-CV-9" speedFactor="1.04" vaporized="">
        <emissions CO_abs="5474.061361" CO2_abs="296116.586273" HC_abs="29.808552" PMx_abs="4.613926" NOx_abs="112.257987" fuel_abs="127.289707" electricity_abs="0"/>
    </tripinfo>
    <tripinfo id="L2-CV-3" depart="31.40" departLane="bottom-approaching_0" departPos="5.10" departSpeed="0.00" departDelay="4.40" arrival="145.90" arrivalLane="right-exit_1" arrivalPos="486.40" arrivalSpeed="20.80" duration="114.50" routeLength="979.93" waitingTime="0.00" waitingCount="0" stopTime="0.00" timeLoss="66.58" rerouteNo="0" devices="tripinfo_L2-CV-3 emissions_L2-CV-3 ssm_L2-CV-3 toc_L2-CV-3 driverstateL2-CV-3" vType="L2-CV-74@L2-CV-3" speedFactor="1.25" vaporized="">
        <emissions CO_abs="3668.869043" CO2_abs="242678.969563" HC_abs="21.727896" PMx_abs="3.924001" NOx_abs="93.135162" fuel_abs="104.318072" electricity_abs="0"/>
    </tripinfo>
    <tripinfo id="L4-CV-12" depart="55.80" departLane="top-approaching_0" departPos="5.10" departSpeed="0.00" departDelay="0.00" arrival="148.50" arrivalLane="bottom-exit_0" arrivalPos="489.60" arrivalSpeed="16.00" duration="92.70" routeLength="995.17" waitingTime="9.80" waitingCount="24" stopTime="0.00" timeLoss="30.44" rerouteNo="0" devices="tripinfo_L4-CV-12 emissions_L4-CV-12 ssm_L4-CV-12 toc_L4-CV-12 driverstateL4-CV-12" vType="L4-CV-20@L4-CV-12" speedFactor="0.96" vaporized="">
        <emissions CO_abs="4269.464766" CO2_abs="272470.701787" HC_abs="23.064529" PMx_abs="3.793919" NOx_abs="100.428855" fuel_abs="117.125081" electricity_abs="0"/>
    </tripinfo>
    <tripinfo id="L4-CV-7" depart="34.40" departLane="bottom-approaching_0" departPos="5.10" departSpeed="0.00" departDelay="1.85" arrival="149.60" arrivalLane="top-exit_0" arrivalPos="486.40" arrivalSpeed="13.41" duration="115.20" routeLength="995.17" waitingTime="29.30" waitingCount="1" stopTime="0.00" timeLoss="40.91" rerouteNo="0" devices="tripinfo_L4-CV-7 emissions_L4-CV-7 ssm_L4-CV-7 toc_L4-CV-7 driverstateL4-CV-7" vType="L4-CV-69@L4-CV-7" speedFactor="0.80" vaporized="">
        <emissions CO_abs="6896.491443" CO2_abs="307855.209823" HC_abs="37.333630" PMx_abs="4.340477" NOx_abs="116.091528" fuel_abs="132.337391" electricity_abs="0"/>
    </tripinfo>
    <tripinfo id="L2-CV-10" depart="90.10" departLane="top-approaching_0" departPos="5.10" departSpeed="0.00" departDelay="0.10" arrival="149.60" arrivalLane="bottom-exit_1" arrivalPos="489.60" arrivalSpeed="18.85" duration="59.50" routeLength="995.17" waitingTime="0.00" waitingCount="0" stopTime="0.00" timeLoss="6.66" rerouteNo="0" devices="tripinfo_L2-CV-10 emissions_L2-CV-10 ssm_L2-CV-10 toc_L2-CV-10 driverstateL2-CV-10" vType="L2-CV-90@L2-CV-10" speedFactor="1.13" vaporized="">
        <emissions CO_abs="1420.915531" CO2_abs="214433.239913" HC_abs="9.100737" PMx_abs="2.752036" NOx_abs="73.357982" fuel_abs="92.175998" electricity_abs="0"/>
    </tripinfo>
    <tripinfo id="L4-AV-3" depart="27.00" departLane="bottom-approaching_0" departPos="5.10" departSpeed="0.00" departDelay="0.00" arrival="150.20" arrivalLane="right-exit_0" arrivalPos="486.40" arrivalSpeed="15.31" duration="123.20" routeLength="979.93" waitingTime="0.10" waitingCount="1" stopTime="0.00" timeLoss="58.21" rerouteNo="0" devices="tripinfo_L4-AV-3 emissions_L4-AV-3 ssm_L4-AV-3 toc_L4-AV-3 driverstateL4-AV-3" vType="L4-AV-40@L4-AV-3" speedFactor="0.92" vaporized="">
        <emissions CO_abs="3332.292945" CO2_abs="243980.930078" HC_abs="18.840666" PMx_abs="3.121414" NOx_abs="89.020871" fuel_abs="104.878381" electricity_abs="0"/>
    </tripinfo>
    <tripinfo id="L0-HDV-3" depart="54.00" departLane="bottom-approaching_0" departPos="5.10" departSpeed="0.00" departDelay="0.00" arrival="151.20" arrivalLane="top-exit_1" arrivalPos="486.40" arrivalSpeed="13.71" duration="97.20" routeLength="995.17" waitingTime="14.20" waitingCount="1" stopTime="0.00" timeLoss="24.64" rerouteNo="0" devices="tripinfo_L0-HDV-3 emissions_L0-HDV-3 ssm_L0-HDV-3" vType="L0-HDV-17@L0-HDV-3" speedFactor="0.82" vaporized="">
        <emissions CO_abs="4656.995820" CO2_abs="220174.631206" HC_abs="26.247569" PMx_abs="3.659739" NOx_abs="87.399104" fuel_abs="94.645200" electricity_abs="0"/>
    </tripinfo>
    <tripinfo id="L2-AV-2" depart="37.60" departLane="bottom-approaching_0" departPos="5.10" departSpeed="0.00" departDelay="1.60" arrival="152.00" arrivalLane="right-exit_0" arrivalPos="486.40" arrivalSpeed="16.95" duration="114.40" routeLength="979.93" waitingTime="0.00" waitingCount="0" stopTime="0.00" timeLoss="55.61" rerouteNo="0" devices="tripinfo_L2-AV-2 emissions_L2-AV-2 ssm_L2-AV-2 toc_L2-AV-2 driverstateL2-AV-2" vType="L2-AV-30@L2-AV-2" speedFactor="1.02" vaporized="">
        <emissions CO_abs="3428.428186" CO2_abs="191045.547876" HC_abs="19.573494" PMx_abs="3.206634" NOx_abs="75.910916" fuel_abs="82.123006" electricity_abs="0"/>
    </tripinfo>
    <tripinfo id="L4-CV-18" depart="83.70" departLane="top-approaching_0" departPos="5.10" departSpeed="0.00" departDelay="0.00" arrival="154.40" arrivalLane="right-exit_1" arrivalPos="486.40" arrivalSpeed="16.15" duration="70.70" routeLength="992.21" waitingTime="0.00" waitingCount="0" stopTime="0.00" timeLoss="8.22" rerouteNo="0" devices="tripinfo_L4-CV-18 emissions_L4-CV-18 ssm_L4-CV-18 toc_L4-CV-18 driverstateL4-CV-18" vType="L4-CV-2@L4-CV-18" speedFactor="0.97" vaporized="">
        <emissions CO_abs="1899.985744" CO2_abs="227636.957915" HC_abs="11.337864" PMx_abs="2.842054" NOx_abs="80.751187" fuel_abs="97.851829" electricity_abs="0"/>
    </tripinfo>
    <tripinfo id="L4-AV-10" depart="90.00" departLane="top-approaching_0" departPos="5.10" departSpeed="0.00" departDelay="0.00" arrival="165.60" arrivalLane="bottom-exit_0" arrivalPos="489.60" arrivalSpeed="14.12" duration="75.60" routeLength="995.17" waitingTime="0.00" waitingCount="0" stopTime="0.00" timeLoss="5.01" rerouteNo="0" devices="tripinfo_L4-AV-10 emissions_L4-AV-10 ssm_L4-AV-10 toc_L4-AV-10 driverstateL4-AV-10" vType="L4-AV-57@L4-AV-10" speedFactor="0.85" vaporized="">
        <emissions CO_abs="1143.742598" CO2_abs="203046.170541" HC_abs="7.700976" PMx_abs="1.739124" NOx_abs="67.107206" fuel_abs="87.282020" electricity_abs="0"/>
    </tripinfo>
    <tripinfo id="L0-HDV-5" depart="93.40" departLane="top-approaching_0" departPos="5.10" departSpeed="0.00" departDelay="3.40" arrival="174.70" arrivalLane="left-exit_0" arrivalPos="831.00" arrivalSpeed="19.16" duration="81.30" routeLength="1386.28" waitingTime="0.00" waitingCount="0" stopTime="0.00" timeLoss="6.60" rerouteNo="0" devices="tripinfo_L0-HDV-5 emissions_L0-HDV-5 ssm_L0-HDV-5" vType="L0-HDV-24@L0-HDV-5" speedFactor="1.15" vaporized="">
        <emissions CO_abs="2172.080879" CO2_abs="226201.901623" HC_abs="14.399735" PMx_abs="3.653630" NOx_abs="85.070265" fuel_abs="97.234306" electricity_abs="0"/>
    </tripinfo>
    <tripinfo id="L4-AV-4" depart="41.00" departLane="bottom-approaching_0" departPos="5.10" departSpeed="0.00" departDelay="5.00" arrival="191.50" arrivalLane="left-exit_0" arrivalPos="831.00" arrivalSpeed="18.68" duration="150.50" routeLength="1396.90" waitingTime="18.90" waitingCount="1" stopTime="0.00" timeLoss="73.33" rerouteNo="0" devices="tripinfo_L4-AV-4 emissions_L4-AV-4 ssm_L4-AV-4 toc_L4-AV-4 driverstateL4-AV-4" vType="L4-AV-74@L4-AV-4" speedFactor="1.12" vaporized="">
        <emissions CO_abs="6781.766051" CO2_abs="305700.833007" HC_abs="36.792608" PMx_abs="5.490340" NOx_abs="121.797624" fuel_abs="131.409504" electricity_abs="0"/>
    </tripinfo>
    <tripinfo id="L0-HDV-1" depart="18.00" departLane="left-long-approaching_0" departPos="5.10" departSpeed="0.00" departDelay="0.00" arrival="192.60" arrivalLane="right-exit_0" arrivalPos="486.40" arrivalSpeed="16.82" duration="174.60" routeLength="1395.81" waitingTime="82.50" waitingCount="1" stopTime="0.00" timeLoss="89.67" rerouteNo="0" devices="tripinfo_L0-HDV-1 emissions_L0-HDV-1 ssm_L0-HDV-1" vType="L0-HDV-Straight-11@L0-HDV-1" speedFactor="1.01" vaporized="">
        <emissions CO_abs="15708.607510" CO2_abs="433859.485383" HC_abs="80.751937" PMx_abs="8.758089" NOx_abs="181.075238" fuel_abs="186.503866" electricity_abs="0"/>
    </tripinfo>
    <tripinfo id="L4-CV-11" depart="51.20" departLane="right-approaching_0" departPos="5.10" departSpeed="0.00" departDelay="0.05" arrival="194.00" arrivalLane="top-exit_0" arrivalPos="486.40" arrivalSpeed="16.25" duration="142.80" routeLength="979.43" waitingTime="71.50" waitingCount="1" stopTime="0.00" timeLoss="81.52" rerouteNo="0" devices="tripinfo_L4-CV-11 emissions_L4-CV-11 ssm_L4-CV-11 toc_L4-CV-11 driverstateL4-CV-11" vType="L4-CV-17@L4-CV-11" speedFactor="0.98" vaporized="">
        <emissions CO_abs="14051.382900" CO2_abs="423612.872756" HC_abs="70.985538" PMx_abs="7.764690" NOx_abs="170.537715" fuel_abs="182.099000" electricity_abs="0"/>
    </tripinfo>
    <tripinfo id="L4-CV-2" depart="9.30" departLane="bottom-approaching_0" departPos="5.10" departSpeed="0.00" departDelay="0.00" arrival="196.40" arrivalLane="left-exit_0" arrivalPos="831.00" arrivalSpeed="16.04" duration="187.10" routeLength="1396.90" waitingTime="75.10" waitingCount="3" stopTime="0.00" timeLoss="97.30" rerouteNo="0" devices="tripinfo_L4-CV-2 emissions_L4-CV-2 ssm_L4-CV-2 toc_L4-CV-2 driverstateL4-CV-2" vType="L4-CV-95@L4-CV-2" speedFactor="0.96" vaporized="">
        <emissions CO_abs="15935.110270" CO2_abs="521054.470851" HC_abs="80.892858" PMx_abs="8.805036" NOx_abs="204.466737" fuel_abs="223.986345" electricity_abs="0"/>
    </tripinfo>
    <tripinfo id="L2-CV-4" depart="41.10" departLane="bottom-approaching_0" departPos="5.10" departSpeed="0.00" departDelay="5.10" arrival="196.40" arrivalLane="left-exit_1" arrivalPos="831.00" arrivalSpeed="16.84" duration="155.30" routeLength="1396.90" waitingTime="17.80" waitingCount="1" stopTime="0.00" timeLoss="69.78" rerouteNo="0" devices="tripinfo_L2-CV-4 emissions_L2-CV-4 ssm_L2-CV-4 toc_L2-CV-4 driverstateL2-CV-4" vType="L2-CV-18@L2-CV-4" speedFactor="1.01" vaporized="">
        <emissions CO_abs="6594.710986" CO2_abs="360774.860069" HC_abs="35.729009" PMx_abs="5.469171" NOx_abs="135.907089" fuel_abs="155.084047" electricity_abs="0"/>
    </tripinfo>
    <tripinfo id="L4-CV-10" depart="46.50" departLane="left-long-approaching_0" departPos="5.10" departSpeed="0.00" departDelay="0.00" arrival="196.60" arrivalLane="right-exit_0" arrivalPos="486.40" arrivalSpeed="16.81" duration="150.10" routeLength="1395.81" waitingTime="46.40" waitingCount="1" stopTime="0.00" timeLoss="65.36" rerouteNo="0" devices="tripinfo_L4-CV-10 emissions_L4-CV-10 ssm_L4-CV-10 toc_L4-CV-10 driverstateL4-CV-10" vType="L4-CV-27@L4-CV-10" speedFactor="1.01" vaporized="">
        <emissions CO_abs="8699.987422" CO2_abs="408250.260058" HC_abs="45.669928" PMx_abs="6.207663" NOx_abs="153.131872" fuel_abs="175.493040" electricity_abs="0"/>
    </tripinfo>
    <tripinfo id="L4-AV-8" depart="72.00" departLane="right-approaching_0" departPos="5.10" departSpeed="0.00" departDelay="0.00" arrival="198.50" arrivalLane="top-exit_0" arrivalPos="486.40" arrivalSpeed="17.37" duration="126.50" routeLength="979.43" waitingTime="0.10" waitingCount="1" stopTime="0.00" timeLoss="69.14" rerouteNo="0" devices="tripinfo_L4-AV-8 emissions_L4-AV-8 ssm_L4-AV-8 toc_L4-AV-8 driverstateL4-AV-8" vType="L4-AV-73@L4-AV-8" speedFactor="1.04" vaporized="">
        <emissions CO_abs="3347.644904" CO2_abs="252436.152677" HC_abs="19.346318" PMx_abs="3.555944" NOx_abs="93.402077" fuel_abs="108.512512" electricity_abs="0"/>
    </tripinfo>
    <tripinfo id="L0-HDV-4" depart="73.70" departLane="left-long-approaching_0" departPos="5.10" departSpeed="0.00" departDelay="1.70" arrival="199.80" arrivalLane="bottom-exit_1" arrivalPos="489.60" arrivalSpeed="16.24" duration="126.10" routeLength="1383.54" waitingTime="8.50" waitingCount="1" stopTime="0.00" timeLoss="38.39" rerouteNo="0" devices="tripinfo_L0-HDV-4 emissions_L0-HDV-4 ssm_L0-HDV-4" vType="L0-HDV-81@L0-HDV-4" speedFactor="0.98" vaporized="">
        <emissions CO_abs="4689.558903" CO2_abs="254597.879823" HC_abs="27.009357" PMx_abs="3.981608" NOx_abs="99.068649" fuel_abs="109.442321" electricity_abs="0"/>
    </tripinfo>
    <tripinfo id="L2-CV-8" depart="76.20" departLane="right-approaching_0" departPos="5.10" departSpeed="0.00" departDelay="4.20" arrival="201.60" arrivalLane="top-exit_0" arrivalPos="486.40" arrivalSpeed="16.18" duration="125.40" routeLength="979.43" waitingTime="0.00" waitingCount="0" stopTime="0.00" timeLoss="63.84" rerouteNo="0" devices="tripinfo_L2-CV-8 emissions_L2-CV-8 ssm_L2-CV-8 toc_L2-CV-8 driverstateL2-CV-8" vType="L2-CV-40@L2-CV-8" speedFactor="0.97" vaporized="">
        <emissions CO_abs="3052.041478" CO2_abs="238943.327424" HC_abs="17.445286" PMx_abs="3.206506" NOx_abs="87.601916" fuel_abs="102.712533" electricity_abs="0"/>
    </tripinfo>
    <tripinfo id="L4-CV-14" depart="65.10" departLane="right-approaching_0" departPos="5.10" departSpeed="0.00" departDelay="0.00" arrival="204.20" arrivalLane="bottom-exit_1" arrivalPos="489.60" arrivalSpeed="14.90" duration="139.10" routeLength="992.90" waitingTime="56.90" waitingCount="3" stopTime="0.00" timeLoss="71.36" rerouteNo="0" devices="tripinfo_L4-CV-14 emissions_L4-CV-14 ssm_L4-CV-14 toc_L4-CV-14 driverstateL4-CV-14" vType="L4-CV-29@L4-CV-14" speedFactor="0.89" vaporized="">
        <emissions CO_abs="11778.058511" CO2_abs="386153.992140" HC_abs="60.416820" PMx_abs="6.598364" NOx_abs="152.963302" fuel_abs="165.996382" electricity_abs="0"/>
    </tripinfo>
    <tripinfo id="L4-CV-15" depart="69.80" departLane="left-long-approaching_0" departPos="5.10" departSpeed="0.00" departDelay="0.05" arrival="205.20" arrivalLane="bottom-exit_0" arrivalPos="489.60" arrivalSpeed="12.61" duration="135.40" routeLength="1383.54" waitingTime="9.30" waitingCount="1" stopTime="0.00" timeLoss="22.34" rerouteNo="0" devices="tripinfo_L4-CV-15 emissions_L4-CV-15 ssm_L4-CV-15 toc_L4-CV-15 driverstateL4-CV-15" vType="L4-CV-Right-30@L4-CV-15" speedFactor="0.76" vaporized="">
        <emissions CO_abs="4153.071767" CO2_abs="333626.971369" HC_abs="26.357323" PMx_abs="3.423497" NOx_abs="117.302173" fuel_abs="143.415230" electricity_abs="0"/>
    </tripinfo>
    <tripinfo id="L0-HDV-7" depart="126.00" departLane="right-approaching_0" departPos="5.10" departSpeed="0.00" departDelay="0.00" arrival="205.30" arrivalLane="bottom-exit_1" arrivalPos="489.60" arrivalSpeed="16.30" duration="79.30" routeLength="992.90" waitingTime="1.30" waitingCount="2" stopTime="0.00" timeLoss="32.78" rerouteNo="0" devices="tripinfo_L0-HDV-7 emissions_L0-HDV-7 ssm_L0-HDV-7" vType="L0-HDV-87@L0-HDV-7" speedFactor="1.30" vaporized="">
        <emissions CO_abs="3889.291622" CO2_abs="244284.349955" HC_abs="23.413508" PMx_abs="4.397920" NOx_abs="98.192084" fuel_abs="105.007595" electricity_abs="0"/>
    </tripinfo>
    <tripinfo id="L4-AV-6" depart="54.00" departLane="left-long-approaching_0" departPos="5.10" departSpeed="0.00" departDelay="0.00" arrival="208.80" arrivalLane="top-exit_0" arrivalPos="486.40" arrivalSpeed="15.30" duration="154.80" routeLength="1393.12" waitingTime="39.00" waitingCount="3" stopTime="0.00" timeLoss="61.06" rerouteNo="1" devices="tripinfo_L4-AV-6 emissions_L4-AV-6 ssm_L4-AV-6 toc_L4-AV-6 driverstateL4-AV-6" vType="L4-AV-Left-22@L4-AV-6" speedFactor="0.92" vaporized="">
        <emissions CO_abs="10252.111424" CO2_abs="418856.762774" HC_abs="53.548021" PMx_abs="6.617085" NOx_abs="161.567457" fuel_abs="180.053017" electricity_abs="0"/>
    </tripinfo>
    <tripinfo id="L4-CV-28" depart="130.20" departLane="left-long-approaching_0" departPos="5.10" departSpeed="0.00" departDelay="0.00" arrival="210.90" arrivalLane="bottom-exit_0" arrivalPos="489.60" arrivalSpeed="19.80" duration="80.70" routeLength="1383.54" waitingTime="0.00" waitingCount="0" stopTime="0.00" timeLoss="8.63" rerouteNo="0" devices="tripinfo_L4-CV-28 emissions_L4-CV-28 ssm_L4-CV-28 toc_L4-CV-28 driverstateL4-CV-28" vType="L4-CV-Right-17@L4-CV-28" speedFactor="1.19" vaporized="">
        <emissions CO_abs="2606.049739" CO2_abs="331330.020731" HC_abs="17.818466" PMx_abs="5.045190" NOx_abs="120.275857" fuel_abs="142.424386" electricity_abs="0"/>
    </tripinfo>
    <tripinfo id="L4-CV-22" depart="102.30" departLane="bottom-approaching_0" departPos="5.10" departSpeed="0.00" departDelay="0.00" arrival="218.70" arrivalLane="left-exit_0" arrivalPos="831.00" arrivalSpeed="13.83" duration="116.40" routeLength="1396.90" waitingTime="0.10" waitingCount="1" stopTime="0.00" timeLoss="12.91" rerouteNo="0" devices="tripinfo_L4-CV-22 emissions_L4-CV-22 ssm_L4-CV-22 toc_L4-CV-22 driverstateL4-CV-22" vType="L0-HDV-34@L4-CV-22" speedFactor="0.83" vaporized="">
        <emissions CO_abs="3790.727679" CO2_abs="304818.544886" HC_abs="23.597518" PMx_abs="4.397057" NOx_abs="116.102313" fuel_abs="131.029287" electricity_abs="0"/>
    </tripinfo>
    <tripinfo id="L4-AV-16" depart="144.00" departLane="right-approaching_0" departPos="5.10" departSpeed="0.00" departDelay="0.00" arrival="223.00" arrivalLane="bottom-exit_0" arrivalPos="489.60" arrivalSpeed="14.82" duration="79.00" routeLength="992.90" waitingTime="0.10" waitingCount="1" stopTime="0.00" timeLoss="10.85" rerouteNo="0" devices="tripinfo_L4-AV-16 emissions_L4-AV-16 ssm_L4-AV-16 toc_L4-AV-16 driverstateL4-AV-16" vType="L4-AV-3@L4-AV-16" speedFactor="0.89" vaporized="">
        <emissions CO_abs="2241.835478" CO2_abs="230516.265550" HC_abs="13.442043" PMx_abs="2.658160" NOx_abs="81.658329" fuel_abs="99.090108" electricity_abs="0"/>
    </tripinfo>
    <tripinfo id="L2-CV-16" depart="148.00" departLane="right-approaching_0" departPos="5.10" departSpeed="0.00" departDelay="4.00" arrival="223.70" arrivalLane="bottom-exit_1" arrivalPos="489.60" arrivalSpeed="15.48" duration="75.70" routeLength="992.90" waitingTime="0.00" waitingCount="0" stopTime="0.00" timeLoss="10.48" rerouteNo="0" devices="tripinfo_L2-CV-16 emissions_L2-CV-16 ssm_L2-CV-16 toc_L2-CV-16 driverstateL2-CV-16" vType="L2-CV-81@L2-CV-16" speedFactor="0.93" vaporized="">
        <emissions CO_abs="1848.912413" CO2_abs="206393.293543" HC_abs="11.708847" PMx_abs="2.512906" NOx_abs="73.951626" fuel_abs="88.720299" electricity_abs="0"/>
    </tripinfo>
    <tripinfo id="L2-CV-6" depart="57.10" departLane="left-long-approaching_0" departPos="5.10" departSpeed="0.00" departDelay="3.10" arrival="225.90" arrivalLane="top-exit_0" arrivalPos="486.40" arrivalSpeed="16.24" duration="168.80" routeLength="1393.12" waitingTime="47.70" waitingCount="5" stopTime="0.00" timeLoss="80.46" rerouteNo="1" devices="tripinfo_L2-CV-6 emissions_L2-CV-6 ssm_L2-CV-6 toc_L2-CV-6 driverstateL2-CV-6" vType="L2-CV-Left-46@L2-CV-6" speedFactor="0.97" vaporized="">
        <emissions CO_abs="12499.309442" CO2_abs="388323.015779" HC_abs="64.870975" PMx_abs="7.286780" NOx_abs="159.255937" fuel_abs="166.928417" electricity_abs="0"/>
    </tripinfo>