<?xml version="1.0" encoding="UTF-8"?>

<!-- generated on 04/05/21 19:11:50 by Eclipse SUMO sumo Version 1.8.0
<configuration xmlns:xsi="http://www.w3.org/2001/XMLSchema-instance" xsi:noNamespaceSchemaLocation="http://sumo.dlr.de/xsd/sumoConfiguration.xsd">

    <input>
        <net-file value="Roadworks\BaselinePenetration2\../RoadworksIntersection.net.xml"/>
        <route-files value="Roadworks\BaselinePenetration2\Route-Files/L4-CV-Route.rou.xml,Roadworks\BaselinePenetration2\Route-Files/L4-AV-Route.rou.xml,Roadworks\BaselinePenetration2\Route-Files/L2-CV-Route.rou.xml,Roadworks\BaselinePenetration2\Route-Files/L2-AV-Route.rou.xml,Roadworks\BaselinePenetration2\Route-Files/L0-HDV-Route.rou.xml"/>
        <additional-files value="Roadworks\BaselinePenetration2\../Additional-Files/Roadworks-Detectors.add.xml,Roadworks\BaselinePenetration2\../Additional-Files/Roadworks-Rerouters.add.xml,Roadworks\BaselinePenetration2\../Additional-Files/Roadworks-Traffic-lights.add.xml,Roadworks\BaselinePenetration2\../Additional-Files/Roadworks-Traffic-Signs.add.xml,Roadworks\BaselinePenetration2\PreparingVehicleModels/Vehicle-Models/L4-CV.add.xml,Roadworks\BaselinePenetration2\PreparingVehicleModels/Vehicle-Models/L4-CV-Left.add.xml,Roadworks\BaselinePenetration2\PreparingVehicleModels/Vehicle-Models/L4-CV-Right.add.xml,Roadworks\BaselinePenetration2\PreparingVehicleModels/Vehicle-Models/L4-AV.add.xml,Roadworks\BaselinePenetration2\PreparingVehicleModels/Vehicle-Models/L4-AV-Left.add.xml,Roadworks\BaselinePenetration2\PreparingVehicleModels/Vehicle-Models/L4-AV-Right.add.xml,Roadworks\BaselinePenetration2\PreparingVehicleModels/Vehicle-Models/L2-CV.add.xml,Roadworks\BaselinePenetration2\PreparingVehicleModels/Vehicle-Models/L2-CV-Left.add.xml,Roadworks\BaselinePenetration2\PreparingVehicleModels/Vehicle-Models/L2-CV-Right.add.xml,Roadworks\BaselinePenetration2\PreparingVehicleModels/Vehicle-Models/L2-AV.add.xml,Roadworks\BaselinePenetration2\PreparingVehicleModels/Vehicle-Models/L2-AV-Left.add.xml,Roadworks\BaselinePenetration2\PreparingVehicleModels/Vehicle-Models/L2-AV-Right.add.xml,Roadworks\BaselinePenetration2\PreparingVehicleModels/Vehicle-Models/L0-HDV.add.xml,Roadworks\BaselinePenetration2\PreparingVehicleModels/Vehicle-Models/L0-HDV-Left.add.xml,Roadworks\BaselinePenetration2\PreparingVehicleModels/Vehicle-Models/L0-HDV-Straight.add.xml"/>
    </input>

    <output>
        <tripinfo-output value="Roadworks\BaselinePenetration2\Output-Files\TripInfo.xml"/>
    </output>

    <time>
        <begin value="0"/>
        <step-length value="0.1"/>
    </time>

    <processing>
        <ignore-route-errors value="true"/>
        <waiting-time-memory value="300"/>
        <default.action-step-length value="0.1"/>
    </processing>

    <report>
        <no-warnings value="true"/>
    </report>

    <emissions>
        <device.emissions.probability value="1"/>
    </emissions>

    <traci_server>
        <remote-port value="60496"/>
    </traci_server>

    <gui_only>
        <quit-on-end value="true"/>
        <start value="true"/>
        <tracker-interval value="0.1"/>
    </gui_only>

</configuration>
-->

<tripinfos xmlns:xsi="http://www.w3.org/2001/XMLSchema-instance" xsi:noNamespaceSchemaLocation="http://sumo.dlr.de/xsd/tripinfo_file.xsd">
    <tripinfo id="L2-CV-2" depart="10.00" departLane="top-approaching_0" departPos="5.10" departSpeed="0.00" departDelay="0.00" arrival="78.40" arrivalLane="right-exit_0" arrivalPos="486.40" arrivalSpeed="16.59" duration="68.40" routeLength="992.21" waitingTime="0.00" waitingCount="0" stopTime="0.00" timeLoss="7.60" rerouteNo="0" devices="tripinfo_L2-CV-2 emissions_L2-CV-2 ssm_L2-CV-2 toc_L2-CV-2 driverstateL2-CV-2" vType="L2-CV-56@L2-CV-2" speedFactor="1.00" vaporized="">
        <emissions CO_abs="1836.926238" CO2_abs="224845.096117" HC_abs="10.802136" PMx_abs="2.727797" NOx_abs="78.698091" fuel_abs="96.651818" electricity_abs="0"/>
    </tripinfo>
    <tripinfo id="L2-AV-0" depart="0.00" departLane="left-long-approaching_0" departPos="5.10" departSpeed="0.00" departDelay="0.00" arrival="82.60" arrivalLane="bottom-exit_0" arrivalPos="489.60" arrivalSpeed="16.85" duration="82.60" routeLength="983.54" waitingTime="10.80" waitingCount="1" stopTime="0.00" timeLoss="21.70" rerouteNo="0" devices="tripinfo_L2-AV-0 emissions_L2-AV-0 ssm_L2-AV-0 toc_L2-AV-0 driverstateL2-AV-0" vType="L2-AV-Right-32@L2-AV-0" speedFactor="1.01" vaporized="">
        <emissions CO_abs="4215.243916" CO2_abs="268516.104959" HC_abs="22.772219" PMx_abs="3.954640" NOx_abs="99.796147" fuel_abs="115.424865" electricity_abs="0"/>
    </tripinfo>
    <tripinfo id="L0-HDV-7" depart="18.90" departLane="left-long-approaching_0" departPos="5.10" departSpeed="0.00" departDelay="0.07" arrival="83.50" arrivalLane="right-exit_0" arrivalPos="486.40" arrivalSpeed="17.09" duration="64.60" routeLength="995.81" waitingTime="0.00" waitingCount="0" stopTime="0.00" timeLoss="4.72" rerouteNo="0" devices="tripinfo_L0-HDV-7 emissions_L0-HDV-7 ssm_L0-HDV-7" vType="L0-HDV-Straight-59" speedFactor="1.03" vaporized="">
        <emissions CO_abs="2323.455635" CO2_abs="202652.775405" HC_abs="15.281649" PMx_abs="3.555196" NOx_abs="80.317281" fuel_abs="87.111345" electricity_abs="0"/>
    </tripinfo>
    <tripinfo id="L0-HDV-3" depart="8.40" departLane="right-approaching_0" departPos="5.10" departSpeed="0.00" departDelay="0.33" arrival="83.80" arrivalLane="top-exit_0" arrivalPos="486.40" arrivalSpeed="18.84" duration="75.40" routeLength="979.43" waitingTime="1.50" waitingCount="1" stopTime="0.00" timeLoss="22.54" rerouteNo="0" devices="tripinfo_L0-HDV-3 emissions_L0-HDV-3 ssm_L0-HDV-3" vType="L0-HDV-86" speedFactor="1.13" vaporized="">
        <emissions CO_abs="3831.774513" CO2_abs="242692.002917" HC_abs="23.030001" PMx_abs="4.208670" NOx_abs="96.159613" fuel_abs="104.323356" electricity_abs="0"/>
    </tripinfo>
    <tripinfo id="L4-CV-1" depart="11.00" departLane="left-long-approaching_0" departPos="5.10" departSpeed="0.00" departDelay="0.00" arrival="85.60" arrivalLane="bottom-exit_0" arrivalPos="489.60" arrivalSpeed="16.26" duration="74.60" routeLength="983.54" waitingTime="0.00" waitingCount="0" stopTime="0.00" timeLoss="11.48" rerouteNo="0" devices="tripinfo_L4-CV-1 emissions_L4-CV-1 ssm_L4-CV-1 toc_L4-CV-1 driverstateL4-CV-1" vType="L4-CV-Right-89@L4-CV-1" speedFactor="0.98" vaporized="">
        <emissions CO_abs="2423.672298" CO2_abs="241981.921013" HC_abs="14.221672" PMx_abs="3.116055" NOx_abs="86.905766" fuel_abs="104.018358" electricity_abs="0"/>
    </tripinfo>
    <tripinfo id="L2-AV-2" depart="12.20" departLane="right-approaching_0" departPos="5.10" departSpeed="0.00" departDelay="2.20" arrival="88.80" arrivalLane="left-exit_0" arrivalPos="431.00" arrivalSpeed="16.17" duration="76.60" routeLength="999.16" waitingTime="0.00" waitingCount="0" stopTime="0.00" timeLoss="12.68" rerouteNo="0" devices="tripinfo_L2-AV-2 emissions_L2-AV-2 ssm_L2-AV-2 toc_L2-AV-2 driverstateL2-AV-2" vType="L0-HDV-95" speedFactor="0.97" vaporized="">
        <emissions CO_abs="2496.892148" CO2_abs="214201.214457" HC_abs="14.817533" PMx_abs="3.035833" NOx_abs="79.603473" fuel_abs="92.076441" electricity_abs="0"/>
    </tripinfo>
    <tripinfo id="L2-CV-3" depart="15.00" departLane="right-approaching_0" departPos="5.10" departSpeed="0.00" departDelay="0.00" arrival="89.70" arrivalLane="left-exit_1" arrivalPos="431.00" arrivalSpeed="18.18" duration="74.70" routeLength="999.16" waitingTime="0.40" waitingCount="1" stopTime="0.00" timeLoss="17.96" rerouteNo="0" devices="tripinfo_L2-CV-3 emissions_L2-CV-3 ssm_L2-CV-3 toc_L2-CV-3 driverstateL2-CV-3" vType="L0-HDV-20" speedFactor="1.09" vaporized="">
        <emissions CO_abs="3110.597504" CO2_abs="220070.817825" HC_abs="18.845893" PMx_abs="3.727947" NOx_abs="86.117414" fuel_abs="94.599239" electricity_abs="0"/>
    </tripinfo>
    <tripinfo id="L2-AV-1" depart="5.00" departLane="right-approaching_0" departPos="5.10" departSpeed="0.00" departDelay="0.00" arrival="90.60" arrivalLane="bottom-exit_0" arrivalPos="489.60" arrivalSpeed="16.95" duration="85.60" routeLength="992.90" waitingTime="7.80" waitingCount="3" stopTime="0.00" timeLoss="26.01" rerouteNo="0" devices="tripinfo_L2-AV-1 emissions_L2-AV-1 ssm_L2-AV-1 toc_L2-AV-1 driverstateL2-AV-1" vType="L2-AV-30@L2-AV-1" speedFactor="1.02" vaporized="">
        <emissions CO_abs="4475.138408" CO2_abs="278568.710697" HC_abs="24.248474" PMx_abs="4.125619" NOx_abs="103.915187" fuel_abs="119.746157" electricity_abs="0"/>
    </tripinfo>
    <tripinfo id="L2-CV-5" depart="25.00" departLane="right-approaching_0" departPos="5.10" departSpeed="0.00" departDelay="0.00" arrival="100.60" arrivalLane="bottom-exit_0" arrivalPos="489.60" arrivalSpeed="15.71" duration="75.60" routeLength="992.90" waitingTime="0.00" waitingCount="0" stopTime="0.00" timeLoss="11.33" rerouteNo="0" devices="tripinfo_L2-CV-5 emissions_L2-CV-5 ssm_L2-CV-5 toc_L2-CV-5 driverstateL2-CV-5" vType="L2-CV-15@L2-CV-5" speedFactor="0.94" vaporized="">
        <emissions CO_abs="2119.798917" CO2_abs="232534.316666" HC_abs="12.902326" PMx_abs="2.811784" NOx_abs="82.586782" fuel_abs="99.957327" electricity_abs="0"/>
    </tripinfo>
    <tripinfo id="L2-CV-7" depart="35.00" departLane="right-approaching_0" departPos="5.10" departSpeed="0.00" departDelay="0.00" arrival="104.70" arrivalLane="top-exit_0" arrivalPos="486.40" arrivalSpeed="15.80" duration="69.70" routeLength="979.43" waitingTime="0.00" waitingCount="0" stopTime="0.00" timeLoss="6.70" rerouteNo="0" devices="tripinfo_L2-CV-7 emissions_L2-CV-7 ssm_L2-CV-7 toc_L2-CV-7 driverstateL2-CV-7" vType="L2-CV-44@L2-CV-7" speedFactor="0.95" vaporized="">
        <emissions CO_abs="1650.739759" CO2_abs="223237.774551" HC_abs="10.437760" PMx_abs="2.618926" NOx_abs="78.183256" fuel_abs="95.960926" electricity_abs="0"/>
    </tripinfo>
    <tripinfo id="L2-AV-6" depart="30.00" departLane="left-long-approaching_0" departPos="5.10" departSpeed="0.00" departDelay="0.00" arrival="105.00" arrivalLane="top-exit_1" arrivalPos="486.40" arrivalSpeed="16.25" duration="75.00" routeLength="993.12" waitingTime="0.00" waitingCount="0" stopTime="0.00" timeLoss="11.48" rerouteNo="1" devices="tripinfo_L2-AV-6 emissions_L2-AV-6 ssm_L2-AV-6 toc_L2-AV-6 driverstateL2-AV-6" vType="L0-HDV-85" speedFactor="0.98" vaporized="">
        <emissions CO_abs="2635.476893" CO2_abs="228229.038729" HC_abs="15.873611" PMx_abs="3.316353" NOx_abs="85.640705" fuel_abs="98.106293" electricity_abs="0"/>
    </tripinfo>
    <tripinfo id="L0-HDV-19" depart="51.20" departLane="right-approaching_0" departPos="5.10" departSpeed="0.00" departDelay="0.09" arrival="111.50" arrivalLane="bottom-exit_1" arrivalPos="489.60" arrivalSpeed="18.43" duration="60.30" routeLength="992.90" waitingTime="0.00" waitingCount="0" stopTime="0.00" timeLoss="5.56" rerouteNo="0" devices="tripinfo_L0-HDV-19 emissions_L0-HDV-19 ssm_L0-HDV-19" vType="L0-HDV-90" speedFactor="1.11" vaporized="">
        <emissions CO_abs="2203.833680" CO2_abs="195179.456126" HC_abs="14.495466" PMx_abs="3.455987" NOx_abs="76.864192" fuel_abs="83.898878" electricity_abs="0"/>
    </tripinfo>
    <tripinfo id="L0-HDV-6" depart="16.50" departLane="top-approaching_0" departPos="5.10" departSpeed="0.00" departDelay="0.36" arrival="136.20" arrivalLane="bottom-exit_1" arrivalPos="489.60" arrivalSpeed="21.87" duration="119.70" routeLength="995.17" waitingTime="58.60" waitingCount="1" stopTime="0.00" timeLoss="74.26" rerouteNo="0" devices="tripinfo_L0-HDV-6 emissions_L0-HDV-6 ssm_L0-HDV-6" vType="L0-HDV-2" speedFactor="1.32" vaporized="">
        <emissions CO_abs="13480.147191" CO2_abs="415840.585436" HC_abs="71.329394" PMx_abs="9.091119" NOx_abs="177.784557" fuel_abs="178.755842" electricity_abs="0"/>
    </tripinfo>
    <tripinfo id="L4-AV-1" depart="11.00" departLane="bottom-approaching_0" departPos="5.10" departSpeed="0.00" departDelay="0.00" arrival="141.70" arrivalLane="right-exit_0" arrivalPos="486.40" arrivalSpeed="20.01" duration="130.70" routeLength="979.93" waitingTime="58.80" waitingCount="1" stopTime="0.00" timeLoss="80.97" rerouteNo="0" devices="tripinfo_L4-AV-1 emissions_L4-AV-1 ssm_L4-AV-1 toc_L4-AV-1 driverstateL4-AV-1" vType="L4-AV-0@L4-AV-1" speedFactor="1.20" vaporized="">
        <emissions CO_abs="13334.991275" CO2_abs="435647.405154" HC_abs="69.778728" PMx_abs="8.434292" NOx_abs="177.429357" fuel_abs="187.271075" electricity_abs="0"/>
    </tripinfo>
    <tripinfo id="L0-HDV-1" depart="2.70" departLane="top-approaching_0" departPos="5.10" departSpeed="0.00" departDelay="0.01" arrival="144.10" arrivalLane="left-exit_1" arrivalPos="431.00" arrivalSpeed="18.51" duration="141.40" routeLength="986.28" waitingTime="65.60" waitingCount="1" stopTime="0.00" timeLoss="85.99" rerouteNo="0" devices="tripinfo_L0-HDV-1 emissions_L0-HDV-1 ssm_L0-HDV-1" vType="L0-HDV-23" speedFactor="1.12" vaporized="">
        <emissions CO_abs="14829.112508" CO2_abs="436687.862397" HC_abs="77.707216" PMx_abs="8.949411" NOx_abs="184.376086" fuel_abs="187.718692" electricity_abs="0"/>
    </tripinfo>
    <tripinfo id="L0-HDV-10" depart="28.30" departLane="bottom-approaching_0" departPos="5.10" departSpeed="0.00" departDelay="1.40" arrival="145.30" arrivalLane="right-exit_1" arrivalPos="486.40" arrivalSpeed="20.06" duration="117.00" routeLength="979.93" waitingTime="0.00" waitingCount="0" stopTime="0.00" timeLoss="67.54" rerouteNo="0" devices="tripinfo_L0-HDV-10 emissions_L0-HDV-10 ssm_L0-HDV-10" vType="L0-HDV-13" speedFactor="1.21" vaporized="">
        <emissions CO_abs="6917.923801" CO2_abs="311581.674860" HC_abs="38.822855" PMx_abs="5.869847" NOx_abs="127.102060" fuel_abs="133.937162" electricity_abs="0"/>
    </tripinfo>
    <tripinfo id="L2-AV-3" depart="15.00" departLane="bottom-approaching_0" departPos="5.10" departSpeed="0.00" departDelay="0.00" arrival="145.80" arrivalLane="right-exit_0" arrivalPos="486.40" arrivalSpeed="17.92" duration="130.80" routeLength="979.93" waitingTime="0.10" waitingCount="1" stopTime="0.00" timeLoss="75.21" rerouteNo="0" devices="tripinfo_L2-AV-3 emissions_L2-AV-3 ssm_L2-AV-3 toc_L2-AV-3 driverstateL2-AV-3" vType="L2-AV-69@L2-AV-3" speedFactor="1.08" vaporized="">
        <emissions CO_abs="3555.809897" CO2_abs="255562.259868" HC_abs="20.389696" PMx_abs="3.821258" NOx_abs="95.809640" fuel_abs="109.856129" electricity_abs="0"/>
    </tripinfo>
    <tripinfo id="L0-HDV-5" depart="13.50" departLane="top-approaching_0" departPos="5.10" departSpeed="0.00" departDelay="0.05" arrival="146.30" arrivalLane="left-exit_1" arrivalPos="431.00" arrivalSpeed="18.05" duration="132.80" routeLength="986.28" waitingTime="59.60" waitingCount="1" stopTime="0.00" timeLoss="75.96" rerouteNo="0" devices="tripinfo_L0-HDV-5 emissions_L0-HDV-5 ssm_L0-HDV-5" vType="L0-HDV-73" speedFactor="1.09" vaporized="">
        <emissions CO_abs="13174.840382" CO2_abs="387564.149561" HC_abs="68.891844" PMx_abs="7.899420" NOx_abs="162.981464" fuel_abs="166.602009" electricity_abs="0"/>
    </tripinfo>
    <tripinfo id="L0-HDV-9" depart="24.30" departLane="top-approaching_0" departPos="5.10" departSpeed="0.00" departDelay="0.09" arrival="146.30" arrivalLane="bottom-exit_0" arrivalPos="489.60" arrivalSpeed="15.18" duration="122.00" routeLength="995.17" waitingTime="45.80" waitingCount="1" stopTime="0.00" timeLoss="56.58" rerouteNo="0" devices="tripinfo_L0-HDV-9 emissions_L0-HDV-9 ssm_L0-HDV-9" vType="L0-HDV-64" speedFactor="0.91" vaporized="">
        <emissions CO_abs="9954.334228" CO2_abs="308733.835595" HC_abs="52.301066" PMx_abs="6.002400" NOx_abs="128.282655" fuel_abs="132.715194" electricity_abs="0"/>
    </tripinfo>
    <tripinfo id="L4-AV-3" depart="33.00" departLane="top-approaching_0" departPos="5.10" departSpeed="0.00" departDelay="0.00" arrival="146.50" arrivalLane="bottom-exit_1" arrivalPos="489.60" arrivalSpeed="16.46" duration="113.50" routeLength="995.17" waitingTime="0.00" waitingCount="0" stopTime="0.00" timeLoss="52.97" rerouteNo="0" devices="tripinfo_L4-AV-3 emissions_L4-AV-3 ssm_L4-AV-3 toc_L4-AV-3 driverstateL4-AV-3" vType="L4-AV-71@L4-AV-3" speedFactor="0.99" vaporized="">
        <emissions CO_abs="2444.293769" CO2_abs="216682.717661" HC_abs="14.537249" PMx_abs="3.039361" NOx_abs="79.841580" fuel_abs="93.143148" electricity_abs="0"/>
    </tripinfo>
    <tripinfo id="L0-HDV-0" depart="3.20" departLane="bottom-approaching_0" departPos="5.10" departSpeed="0.00" departDelay="3.20" arrival="147.20" arrivalLane="top-exit_1" arrivalPos="486.40" arrivalSpeed="15.86" duration="144.00" routeLength="995.17" waitingTime="63.80" waitingCount="1" stopTime="0.00" timeLoss="81.46" rerouteNo="0" devices="tripinfo_L0-HDV-0 emissions_L0-HDV-0 ssm_L0-HDV-0" vType="L0-HDV-88" speedFactor="0.96" vaporized="">
        <emissions CO_abs="13330.754544" CO2_abs="363192.147672" HC_abs="68.988850" PMx_abs="7.380897" NOx_abs="153.513657" fuel_abs="156.126007" electricity_abs="0"/>
    </tripinfo>
    <tripinfo id="L4-AV-0" depart="0.00" departLane="bottom-approaching_0" departPos="5.10" departSpeed="0.00" departDelay="0.00" arrival="148.10" arrivalLane="top-exit_0" arrivalPos="486.40" arrivalSpeed="13.99" duration="148.10" routeLength="995.17" waitingTime="65.20" waitingCount="1" stopTime="0.00" timeLoss="76.88" rerouteNo="0" devices="tripinfo_L4-AV-0 emissions_L4-AV-0 ssm_L4-AV-0 toc_L4-AV-0 driverstateL4-AV-0" vType="L4-AV-74@L4-AV-0" speedFactor="0.84" vaporized="">
        <emissions CO_abs="12879.150589" CO2_abs="402536.345074" HC_abs="66.160551" PMx_abs="6.820836" NOx_abs="159.755963" fuel_abs="173.039303" electricity_abs="0"/>
    </tripinfo>
    <tripinfo id="L0-HDV-30" depart="80.80" departLane="bottom-approaching_0" departPos="5.10" departSpeed="0.00" departDelay="0.10" arrival="148.70" arrivalLane="right-exit_1" arrivalPos="486.40" arrivalSpeed="22.58" duration="67.90" routeLength="979.93" waitingTime="0.00" waitingCount="0" stopTime="0.00" timeLoss="23.84" rerouteNo="0" devices="tripinfo_L0-HDV-30 emissions_L0-HDV-30 ssm_L0-HDV-30" vType="L0-HDV-1" speedFactor="1.36" vaporized="">
        <emissions CO_abs="4043.436516" CO2_abs="251187.030652" HC_abs="24.458510" PMx_abs="4.951279" NOx_abs="102.961293" fuel_abs="107.974248" electricity_abs="0"/>
    </tripinfo>
    <tripinfo id="L4-CV-4" depart="44.00" departLane="top-approaching_0" departPos="5.10" departSpeed="0.00" departDelay="0.00" arrival="149.20" arrivalLane="bottom-exit_0" arrivalPos="489.60" arrivalSpeed="15.86" duration="105.20" routeLength="995.17" waitingTime="0.00" waitingCount="0" stopTime="0.00" timeLoss="42.30" rerouteNo="0" devices="tripinfo_L4-CV-4 emissions_L4-CV-4 ssm_L4-CV-4 toc_L4-CV-4 driverstateL4-CV-4" vType="L4-CV-41@L4-CV-4" speedFactor="0.95" vaporized="">
        <emissions CO_abs="2749.834427" CO2_abs="245226.237769" HC_abs="15.851247" PMx_abs="3.149326" NOx_abs="88.384281" fuel_abs="105.413209" electricity_abs="0"/>
    </tripinfo>
    <tripinfo id="L0-HDV-11" depart="29.60" departLane="top-approaching_0" departPos="5.10" departSpeed="0.00" departDelay="0.01" arrival="149.70" arrivalLane="left-exit_0" arrivalPos="431.00" arrivalSpeed="17.36" duration="120.10" routeLength="986.28" waitingTime="44.40" waitingCount="1" stopTime="0.00" timeLoss="60.93" rerouteNo="0" devices="tripinfo_L0-HDV-11 emissions_L0-HDV-11 ssm_L0-HDV-11" vType="L0-HDV-63" speedFactor="1.04" vaporized="">
        <emissions CO_abs="10409.268744" CO2_abs="336086.197596" HC_abs="55.094252" PMx_abs="6.595133" NOx_abs="139.519419" fuel_abs="144.472744" electricity_abs="0"/>
    </tripinfo>
    <tripinfo id="L0-HDV-8" depart="21.60" departLane="bottom-approaching_0" departPos="5.10" departSpeed="0.00" departDelay="0.08" arrival="150.20" arrivalLane="top-exit_1" arrivalPos="486.40" arrivalSpeed="16.44" duration="128.60" routeLength="995.17" waitingTime="47.60" waitingCount="1" stopTime="0.00" timeLoss="68.73" rerouteNo="0" devices="tripinfo_L0-HDV-8 emissions_L0-HDV-8 ssm_L0-HDV-8" vType="L0-HDV-27" speedFactor="1.00" vaporized="">
        <emissions CO_abs="11518.247249" CO2_abs="377483.719692" HC_abs="61.306965" PMx_abs="7.790777" NOx_abs="160.522833" fuel_abs="162.267375" electricity_abs="0"/>
    </tripinfo>
    <tripinfo id="L2-AV-14" depart="70.00" departLane="bottom-approaching_0" departPos="5.10" departSpeed="0.00" departDelay="0.00" arrival="150.70" arrivalLane="right-exit_0" arrivalPos="486.40" arrivalSpeed="18.39" duration="80.70" routeLength="979.93" waitingTime="0.00" waitingCount="0" stopTime="0.00" timeLoss="26.55" rerouteNo="0" devices="tripinfo_L2-AV-14 emissions_L2-AV-14 ssm_L2-AV-14 toc_L2-AV-14 driverstateL2-AV-14" vType="L2-AV-90@L2-AV-14" speedFactor="1.10" vaporized="">
        <emissions CO_abs="3109.294475" CO2_abs="260395.006737" HC_abs="18.342010" PMx_abs="3.783843" NOx_abs="96.547027" fuel_abs="111.933285" electricity_abs="0"/>
    </tripinfo>
    <tripinfo id="L2-AV-10" depart="52.30" departLane="top-approaching_0" departPos="5.10" departSpeed="0.00" departDelay="2.30" arrival="154.10" arrivalLane="bottom-exit_0" arrivalPos="489.60" arrivalSpeed="14.75" duration="101.80" routeLength="995.17" waitingTime="0.00" waitingCount="0" stopTime="0.00" timeLoss="34.30" rerouteNo="0" devices="tripinfo_L2-AV-10 emissions_L2-AV-10 ssm_L2-AV-10 toc_L2-AV-10 driverstateL2-AV-10" vType="L2-AV-59@L2-AV-10" speedFactor="0.89" vaporized="">
        <emissions CO_abs="2645.561655" CO2_abs="230057.912546" HC_abs="15.303805" PMx_abs="2.771991" NOx_abs="82.523759" fuel_abs="98.893225" electricity_abs="0"/>
    </tripinfo>
    <tripinfo id="L4-AV-6" depart="66.00" departLane="bottom-approaching_0" departPos="5.10" departSpeed="0.00" departDelay="0.00" arrival="154.60" arrivalLane="top-exit_0" arrivalPos="486.40" arrivalSpeed="15.10" duration="88.60" routeLength="995.17" waitingTime="0.00" waitingCount="0" stopTime="0.00" timeLoss="22.56" rerouteNo="0" devices="tripinfo_L4-AV-6 emissions_L4-AV-6 ssm_L4-AV-6 toc_L4-AV-6 driverstateL4-AV-6" vType="L4-AV-69@L4-AV-6" speedFactor="0.91" vaporized="">
        <emissions CO_abs="2721.131563" CO2_abs="240761.136901" HC_abs="15.661712" PMx_abs="2.898418" NOx_abs="86.113493" fuel_abs="103.494098" electricity_abs="0"/>
    </tripinfo>
    <tripinfo id="L2-AV-11" depart="55.00" departLane="top-approaching_0" departPos="5.10" departSpeed="0.00" departDelay="0.00" arrival="157.60" arrivalLane="left-exit_0" arrivalPos="431.00" arrivalSpeed="15.48" duration="102.60" routeLength="986.28" waitingTime="0.00" waitingCount="0" stopTime="0.00" timeLoss="35.98" rerouteNo="0" devices="tripinfo_L2-AV-11 emissions_L2-AV-11 ssm_L2-AV-11 toc_L2-AV-11 driverstateL2-AV-11" vType="L2-AV-81@L2-AV-11" speedFactor="0.93" vaporized="">
        <emissions CO_abs="3580.694627" CO2_abs="247690.202468" HC_abs="20.667875" PMx_abs="3.812320" NOx_abs="95.180755" fuel_abs="106.472080" electricity_abs="0"/>
    </tripinfo>
    <tripinfo id="L0-HDV-23" depart="61.90" departLane="top-approaching_0" departPos="5.10" departSpeed="0.00" departDelay="0.03" arrival="158.70" arrivalLane="left-exit_1" arrivalPos="431.00" arrivalSpeed="15.79" duration="96.80" routeLength="986.28" waitingTime="0.00" waitingCount="0" stopTime="0.00" timeLoss="31.71" rerouteNo="0" devices="tripinfo_L0-HDV-23 emissions_L0-HDV-23 ssm_L0-HDV-23" vType="L0-HDV-64" speedFactor="0.95" vaporized="">
        <emissions CO_abs="4018.179758" CO2_abs="220470.972321" HC_abs="23.201021" PMx_abs="3.731148" NOx_abs="87.788620" fuel_abs="94.771916" electricity_abs="0"/>
    </tripinfo>
    <tripinfo id="L4-CV-7" depart="77.00" departLane="bottom-approaching_0" departPos="5.10" departSpeed="0.00" departDelay="0.00" arrival="160.40" arrivalLane="top-exit_0" arrivalPos="486.40" arrivalSpeed="13.41" duration="83.40" routeLength="995.17" waitingTime="0.00" waitingCount="0" stopTime="0.00" timeLoss="9.17" rerouteNo="0" devices="tripinfo_L4-CV-7 emissions_L4-CV-7 ssm_L4-CV-7 toc_L4-CV-7 driverstateL4-CV-7" vType="L4-CV-69@L4-CV-7" speedFactor="0.80" vaporized="">
        <emissions CO_abs="1750.126866" CO2_abs="223534.042075" HC_abs="12.038787" PMx_abs="2.161671" NOx_abs="76.977217" fuel_abs="96.089132" electricity_abs="0"/>
    </tripinfo>
    <tripinfo id="L0-HDV-18" depart="48.50" departLane="top-approaching_0" departPos="5.10" departSpeed="0.00" departDelay="0.08" arrival="160.80" arrivalLane="right-exit_1" arrivalPos="486.40" arrivalSpeed="18.82" duration="112.30" routeLength="992.21" waitingTime="31.60" waitingCount="2" stopTime="0.00" timeLoss="58.73" rerouteNo="0" devices="tripinfo_L0-HDV-18 emissions_L0-HDV-18 ssm_L0-HDV-18" vType="L0-HDV-86" speedFactor="1.13" vaporized="">
        <emissions CO_abs="9240.083478" CO2_abs="333374.169076" HC_abs="49.758177" PMx_abs="6.419987" NOx_abs="137.268997" fuel_abs="143.306229" electricity_abs="0"/>
    </tripinfo>
    <tripinfo id="L2-CV-8" depart="40.00" departLane="top-approaching_0" departPos="5.10" departSpeed="0.00" departDelay="0.00" arrival="161.00" arrivalLane="right-exit_0" arrivalPos="486.40" arrivalSpeed="16.02" duration="121.00" routeLength="992.21" waitingTime="41.30" waitingCount="2" stopTime="0.00" timeLoss="58.09" rerouteNo="0" devices="tripinfo_L2-CV-8 emissions_L2-CV-8 ssm_L2-CV-8 toc_L2-CV-8 driverstateL2-CV-8" vType="L2-CV-57@L2-CV-8" speedFactor="0.96" vaporized="">
        <emissions CO_abs="9681.640050" CO2_abs="360439.873545" HC_abs="50.241869" PMx_abs="6.019614" NOx_abs="141.027005" fuel_abs="154.941770" electricity_abs="0"/>
    </tripinfo>
    <tripinfo id="L0-HDV-29" depart="78.10" departLane="top-approaching_0" departPos="5.10" departSpeed="0.00" departDelay="0.09" arrival="161.80" arrivalLane="left-exit_0" arrivalPos="431.00" arrivalSpeed="15.90" duration="83.70" routeLength="986.28" waitingTime="0.00" waitingCount="0" stopTime="0.00" timeLoss="19.35" rerouteNo="0" devices="tripinfo_L0-HDV-29 emissions_L0-HDV-29 ssm_L0-HDV-29" vType="L0-HDV-23" speedFactor="0.96" vaporized="">
        <emissions CO_abs="3466.634742" CO2_abs="234092.396855" HC_abs="21.126939" PMx_abs="3.816968" NOx_abs="92.277278" fuel_abs="100.626800" electricity_abs="0"/>
    </tripinfo>
    <tripinfo id="L4-CV-9" depart="99.00" departLane="top-approaching_0" departPos="5.10" departSpeed="0.00" departDelay="0.00" arrival="162.50" arrivalLane="bottom-exit_0" arrivalPos="489.60" arrivalSpeed="17.34" duration="63.50" routeLength="995.17" waitingTime="0.00" waitingCount="0" stopTime="0.00" timeLoss="6.04" rerouteNo="0" devices="tripinfo_L4-CV-9 emissions_L4-CV-9 ssm_L4-CV-9 toc_L4-CV-9 driverstateL4-CV-9" vType="L4-CV-16@L4-CV-9" speedFactor="1.04" vaporized="">
        <emissions CO_abs="1272.062050" CO2_abs="207366.176755" HC_abs="7.696039" PMx_abs="2.340099" NOx_abs="69.740529" fuel_abs="89.138361" electricity_abs="0"/>
    </tripinfo>
    <tripinfo id="L0-HDV-37" depart="102.20" departLane="top-approaching_0" departPos="5.10" departSpeed="0.00" departDelay="2.67" arrival="163.10" arrivalLane="right-exit_1" arrivalPos="486.40" arrivalSpeed="19.80" duration="60.90" routeLength="992.21" waitingTime="0.00" waitingCount="0" stopTime="0.00" timeLoss="10.19" rerouteNo="0" devices="tripinfo_L0-HDV-37 emissions_L0-HDV-37 ssm_L0-HDV-37" vType="L0-HDV-21" speedFactor="1.19" vaporized="">
        <emissions CO_abs="3429.277405" CO2_abs="250460.415093" HC_abs="21.641260" PMx_abs="4.969345" NOx_abs="103.330627" fuel_abs="107.661292" electricity_abs="0"/>
    </tripinfo>
    <tripinfo id="L2-AV-4" depart="20.00" departLane="bottom-approaching_0" departPos="5.10" departSpeed="0.00" departDelay="0.00" arrival="164.00" arrivalLane="left-exit_1" arrivalPos="431.00" arrivalSpeed="18.85" duration="144.00" routeLength="996.90" waitingTime="74.50" waitingCount="3" stopTime="0.00" timeLoss="88.76" rerouteNo="0" devices="tripinfo_L2-AV-4 emissions_L2-AV-4 ssm_L2-AV-4 toc_L2-AV-4 driverstateL2-AV-4" vType="L2-AV-90@L2-AV-4" speedFactor="1.13" vaporized="">
        <emissions CO_abs="15167.162530" CO2_abs="439528.545305" HC_abs="77.888888" PMx_abs="8.850120" NOx_abs="182.198044" fuel_abs="188.940239" electricity_abs="0"/>
    </tripinfo>
    <tripinfo id="L0-HDV-24" depart="64.80" departLane="top-approaching_0" departPos="5.10" departSpeed="0.00" departDelay="0.24" arrival="170.40" arrivalLane="right-exit_0" arrivalPos="486.40" arrivalSpeed="13.33" duration="105.60" routeLength="992.21" waitingTime="13.30" waitingCount="2" stopTime="0.00" timeLoss="30.19" rerouteNo="0" devices="tripinfo_L0-HDV-24 emissions_L0-HDV-24 ssm_L0-HDV-24" vType="L0-HDV-75" speedFactor="0.80" vaporized="">
        <emissions CO_abs="5666.076674" CO2_abs="249649.368842" HC_abs="31.585950" PMx_abs="4.311386" NOx_abs="100.757740" fuel_abs="107.315366" electricity_abs="0"/>
    </tripinfo>
    <tripinfo id="L4-CV-2" depart="24.00" departLane="bottom-approaching_0" departPos="5.10" departSpeed="0.00" departDelay="2.00" arrival="172.50" arrivalLane="left-exit_0" arrivalPos="431.00" arrivalSpeed="16.04" duration="148.50" routeLength="996.90" waitingTime="58.60" waitingCount="3" stopTime="0.00" timeLoss="83.61" rerouteNo="0" devices="tripinfo_L4-CV-2 emissions_L4-CV-2 ssm_L4-CV-2 toc_L4-CV-2 driverstateL4-CV-2" vType="L4-CV-95@L4-CV-2" speedFactor="0.96" vaporized="">
        <emissions CO_abs="12714.291346" CO2_abs="397623.453248" HC_abs="65.799015" PMx_abs="7.314655" NOx_abs="161.654796" fuel_abs="170.926555" electricity_abs="0"/>
    </tripinfo>
    <tripinfo id="L0-HDV-12" depart="32.30" departLane="bottom-approaching_0" departPos="5.10" departSpeed="0.00" departDelay="0.02" arrival="173.00" arrivalLane="left-exit_1" arrivalPos="431.00" arrivalSpeed="19.05" duration="140.70" routeLength="996.90" waitingTime="58.10" waitingCount="2" stopTime="0.00" timeLoss="86.26" rerouteNo="0" devices="tripinfo_L0-HDV-12 emissions_L0-HDV-12 ssm_L0-HDV-12" vType="L0-HDV-87" speedFactor="1.15" vaporized="">
        <emissions CO_abs="12860.553717" CO2_abs="385290.030476" HC_abs="67.497687" PMx_abs="7.814808" NOx_abs="162.173314" fuel_abs="165.624267" electricity_abs="0"/>
    </tripinfo>