<?xml version="1.0" encoding="UTF-8"?>

<!-- generated on 03/27/21 20:03:21 by Eclipse SUMO sumo Version 1.8.0
<configuration xmlns:xsi="http://www.w3.org/2001/XMLSchema-instance" xsi:noNamespaceSchemaLocation="http://sumo.dlr.de/xsd/sumoConfiguration.xsd">

    <input>
        <net-file value="Roadworks\BaselinePenetration2\../RoadworksIntersection.net.xml"/>
        <route-files value="Roadworks\BaselinePenetration2\Route-Files/L4-CV-Route.rou.xml,Roadworks\BaselinePenetration2\Route-Files/L4-AV-Route.rou.xml,Roadworks\BaselinePenetration2\Route-Files/L2-CV-Route.rou.xml,Roadworks\BaselinePenetration2\Route-Files/L2-AV-Route.rou.xml,Roadworks\BaselinePenetration2\Route-Files/L0-HDV-Route.rou.xml"/>
        <additional-files value="Roadworks\BaselinePenetration2\../Additional-Files/Roadworks-Detectors.add.xml,Roadworks\BaselinePenetration2\../Additional-Files/Roadworks-Rerouters.add.xml,Roadworks\BaselinePenetration2\../Additional-Files/Roadworks-Traffic-lights.add.xml,Roadworks\BaselinePenetration2\../Additional-Files/Roadworks-Traffic-Signs.add.xml,Roadworks\BaselinePenetration2\PreparingVehicleModels/Vehicle-Models/L4-CV.add.xml,Roadworks\BaselinePenetration2\PreparingVehicleModels/Vehicle-Models/L4-CV-Left.add.xml,Roadworks\BaselinePenetration2\PreparingVehicleModels/Vehicle-Models/L4-CV-Right.add.xml,Roadworks\BaselinePenetration2\PreparingVehicleModels/Vehicle-Models/L4-AV.add.xml,Roadworks\BaselinePenetration2\PreparingVehicleModels/Vehicle-Models/L4-AV-Left.add.xml,Roadworks\BaselinePenetration2\PreparingVehicleModels/Vehicle-Models/L4-AV-Right.add.xml,Roadworks\BaselinePenetration2\PreparingVehicleModels/Vehicle-Models/L2-CV.add.xml,Roadworks\BaselinePenetration2\PreparingVehicleModels/Vehicle-Models/L2-CV-Left.add.xml,Roadworks\BaselinePenetration2\PreparingVehicleModels/Vehicle-Models/L2-CV-Right.add.xml,Roadworks\BaselinePenetration2\PreparingVehicleModels/Vehicle-Models/L2-AV.add.xml,Roadworks\BaselinePenetration2\PreparingVehicleModels/Vehicle-Models/L2-AV-Left.add.xml,Roadworks\BaselinePenetration2\PreparingVehicleModels/Vehicle-Models/L2-AV-Right.add.xml,Roadworks\BaselinePenetration2\PreparingVehicleModels/Vehicle-Models/L0-HDV.add.xml,Roadworks\BaselinePenetration2\PreparingVehicleModels/Vehicle-Models/L0-HDV-Left.add.xml,Roadworks\BaselinePenetration2\PreparingVehicleModels/Vehicle-Models/L0-HDV-Straight.add.xml"/>
    </input>

    <output>
        <tripinfo-output value="Roadworks\BaselinePenetration2\Output-Files\TripInfo.xml"/>
    </output>

    <time>
        <begin value="0"/>
        <step-length value="0.1"/>
    </time>

    <processing>
        <ignore-route-errors value="true"/>
        <waiting-time-memory value="300"/>
        <default.action-step-length value="0.1"/>
    </processing>

    <report>
        <no-warnings value="true"/>
    </report>

    <emissions>
        <device.emissions.probability value="1"/>
    </emissions>

    <traci_server>
        <remote-port value="53119"/>
    </traci_server>

    <gui_only>
        <quit-on-end value="true"/>
        <start value="true"/>
        <tracker-interval value="0.1"/>
    </gui_only>

</configuration>
-->

<tripinfos xmlns:xsi="http://www.w3.org/2001/XMLSchema-instance" xsi:noNamespaceSchemaLocation="http://sumo.dlr.de/xsd/tripinfo_file.xsd">
    <tripinfo id="L4-CV-4" depart="9.30" departLane="top-approaching_0" departPos="5.10" departSpeed="0.00" departDelay="0.02" arrival="77.90" arrivalLane="right-exit_0" arrivalPos="486.40" arrivalSpeed="15.86" duration="68.60" routeLength="992.21" waitingTime="0.00" waitingCount="0" stopTime="0.00" timeLoss="5.02" rerouteNo="0" devices="tripinfo_L4-CV-4 emissions_L4-CV-4 ssm_L4-CV-4 toc_L4-CV-4 driverstateL4-CV-4" vType="L4-CV-41@L4-CV-4" speedFactor="0.95" vaporized="">
        <emissions CO_abs="1555.921884" CO2_abs="216751.483370" HC_abs="9.168468" PMx_abs="2.464129" NOx_abs="74.923163" fuel_abs="93.172720" electricity_abs="0"/>
    </tripinfo>
    <tripinfo id="L2-CV-3" depart="14.30" departLane="right-approaching_0" departPos="5.10" departSpeed="0.00" departDelay="0.05" arrival="90.60" arrivalLane="top-exit_1" arrivalPos="486.40" arrivalSpeed="19.44" duration="76.30" routeLength="979.43" waitingTime="2.30" waitingCount="23" stopTime="0.00" timeLoss="25.05" rerouteNo="0" devices="tripinfo_L2-CV-3 emissions_L2-CV-3 ssm_L2-CV-3 toc_L2-CV-3 driverstateL2-CV-3" vType="L2-CV-99@L2-CV-3" speedFactor="1.17" vaporized="">
        <emissions CO_abs="4026.908518" CO2_abs="284670.272502" HC_abs="23.643405" PMx_abs="4.640991" NOx_abs="107.943652" fuel_abs="122.368218" electricity_abs="0"/>
    </tripinfo>
    <tripinfo id="L2-AV-0" depart="0.00" departLane="left-long-approaching_0" departPos="5.10" departSpeed="0.00" departDelay="0.00" arrival="90.80" arrivalLane="bottom-exit_0" arrivalPos="489.60" arrivalSpeed="16.85" duration="90.80" routeLength="1383.54" waitingTime="0.00" waitingCount="0" stopTime="0.00" timeLoss="6.23" rerouteNo="0" devices="tripinfo_L2-AV-0 emissions_L2-AV-0 ssm_L2-AV-0 toc_L2-AV-0 driverstateL2-AV-0" vType="L2-AV-Right-16@L2-AV-0" speedFactor="1.01" vaporized="">
        <emissions CO_abs="1944.208778" CO2_abs="293714.812001" HC_abs="11.455673" PMx_abs="3.378365" NOx_abs="100.384006" fuel_abs="126.256033" electricity_abs="0"/>
    </tripinfo>
    <tripinfo id="L4-CV-2" depart="4.70" departLane="right-approaching_0" departPos="5.10" departSpeed="0.00" departDelay="0.06" arrival="92.60" arrivalLane="top-exit_0" arrivalPos="486.40" arrivalSpeed="16.26" duration="87.90" routeLength="979.43" waitingTime="10.70" waitingCount="1" stopTime="0.00" timeLoss="26.70" rerouteNo="0" devices="tripinfo_L4-CV-2 emissions_L4-CV-2 ssm_L4-CV-2 toc_L4-CV-2 driverstateL4-CV-2" vType="L4-CV-89@L4-CV-2" speedFactor="0.98" vaporized="">
        <emissions CO_abs="4568.344257" CO2_abs="272167.281631" HC_abs="24.579595" PMx_abs="3.913909" NOx_abs="101.256932" fuel_abs="116.994734" electricity_abs="0"/>
    </tripinfo>
    <tripinfo id="L2-AV-1" depart="9.50" departLane="right-approaching_0" departPos="5.10" departSpeed="0.00" departDelay="0.00" arrival="93.50" arrivalLane="bottom-exit_0" arrivalPos="489.60" arrivalSpeed="16.95" duration="84.00" routeLength="992.90" waitingTime="8.40" waitingCount="1" stopTime="0.00" timeLoss="24.45" rerouteNo="0" devices="tripinfo_L2-AV-1 emissions_L2-AV-1 ssm_L2-AV-1 toc_L2-AV-1 driverstateL2-AV-1" vType="L2-AV-30@L2-AV-1" speedFactor="1.02" vaporized="">
        <emissions CO_abs="4333.608681" CO2_abs="275858.942249" HC_abs="23.534626" PMx_abs="4.061761" NOx_abs="102.676172" fuel_abs="118.581284" electricity_abs="0"/>
    </tripinfo>
    <tripinfo id="L4-CV-12" depart="27.90" departLane="right-approaching_0" departPos="5.10" departSpeed="0.00" departDelay="0.06" arrival="101.40" arrivalLane="bottom-exit_0" arrivalPos="489.60" arrivalSpeed="16.00" duration="73.50" routeLength="992.90" waitingTime="0.00" waitingCount="0" stopTime="0.00" timeLoss="10.39" rerouteNo="0" devices="tripinfo_L4-CV-12 emissions_L4-CV-12 ssm_L4-CV-12 toc_L4-CV-12 driverstateL4-CV-12" vType="L4-CV-20@L4-CV-12" speedFactor="0.96" vaporized="">
        <emissions CO_abs="2034.365580" CO2_abs="233635.219396" HC_abs="12.546269" PMx_abs="2.863750" NOx_abs="82.947118" fuel_abs="100.430450" electricity_abs="0"/>
    </tripinfo>
    <tripinfo id="L4-CV-19" depart="44.10" departLane="right-approaching_0" departPos="5.10" departSpeed="0.00" departDelay="0.02" arrival="113.30" arrivalLane="top-exit_0" arrivalPos="486.40" arrivalSpeed="16.15" duration="69.20" routeLength="979.43" waitingTime="0.00" waitingCount="0" stopTime="0.00" timeLoss="7.59" rerouteNo="0" devices="tripinfo_L4-CV-19 emissions_L4-CV-19 ssm_L4-CV-19 toc_L4-CV-19 driverstateL4-CV-19" vType="L4-CV-2@L4-CV-19" speedFactor="0.97" vaporized="">
        <emissions CO_abs="1710.334397" CO2_abs="222200.083611" HC_abs="10.730136" PMx_abs="2.701236" NOx_abs="78.320431" fuel_abs="95.514792" electricity_abs="0"/>
    </tripinfo>
    <tripinfo id="L4-AV-3" depart="17.10" departLane="left-long-approaching_0" departPos="5.10" departSpeed="0.00" departDelay="2.85" arrival="114.00" arrivalLane="top-exit_1" arrivalPos="486.40" arrivalSpeed="18.39" duration="96.90" routeLength="1393.12" waitingTime="4.00" waitingCount="1" stopTime="0.00" timeLoss="18.87" rerouteNo="1" devices="tripinfo_L4-AV-3 emissions_L4-AV-3 ssm_L4-AV-3 toc_L4-AV-3 driverstateL4-AV-3" vType="L4-AV-Left-45@L4-AV-3" speedFactor="1.10" vaporized="">
        <emissions CO_abs="3618.214040" CO2_abs="334449.583165" HC_abs="20.785108" PMx_abs="4.663669" NOx_abs="119.776416" fuel_abs="143.766435" electricity_abs="0"/>
    </tripinfo>
    <tripinfo id="L2-AV-2" depart="19.00" departLane="right-approaching_0" departPos="5.10" departSpeed="0.00" departDelay="0.00" arrival="115.60" arrivalLane="left-exit_0" arrivalPos="831.00" arrivalSpeed="17.34" duration="96.60" routeLength="1399.16" waitingTime="0.20" waitingCount="1" stopTime="0.00" timeLoss="13.98" rerouteNo="0" devices="tripinfo_L2-AV-2 emissions_L2-AV-2 ssm_L2-AV-2 toc_L2-AV-2 driverstateL2-AV-2" vType="L2-AV-68@L2-AV-2" speedFactor="1.04" vaporized="">
        <emissions CO_abs="2897.216789" CO2_abs="306259.533166" HC_abs="17.183890" PMx_abs="4.184133" NOx_abs="110.254990" fuel_abs="131.648332" electricity_abs="0"/>
    </tripinfo>
    <tripinfo id="L4-AV-4" depart="19.00" departLane="left-long-approaching_0" departPos="5.10" departSpeed="0.00" departDelay="0.00" arrival="118.90" arrivalLane="top-exit_0" arrivalPos="486.40" arrivalSpeed="16.01" duration="99.90" routeLength="1393.12" waitingTime="0.00" waitingCount="0" stopTime="0.00" timeLoss="10.32" rerouteNo="1" devices="tripinfo_L4-AV-4 emissions_L4-AV-4 ssm_L4-AV-4 toc_L4-AV-4 driverstateL4-AV-4" vType="L0-HDV-26@L4-AV-4" speedFactor="0.96" vaporized="">
        <emissions CO_abs="2397.648635" CO2_abs="258125.542785" HC_abs="15.075815" PMx_abs="3.439326" NOx_abs="93.896092" fuel_abs="110.957613" electricity_abs="0"/>
    </tripinfo>
    <tripinfo id="L4-CV-9" depart="22.10" departLane="left-long-approaching_0" departPos="5.10" departSpeed="0.00" departDelay="1.22" arrival="119.60" arrivalLane="top-exit_1" arrivalPos="486.40" arrivalSpeed="17.34" duration="97.50" routeLength="1393.12" waitingTime="0.00" waitingCount="0" stopTime="0.00" timeLoss="14.72" rerouteNo="1" devices="tripinfo_L4-CV-9 emissions_L4-CV-9 ssm_L4-CV-9 toc_L4-CV-9 driverstateL4-CV-9" vType="L4-CV-Left-8@L4-CV-9" speedFactor="1.04" vaporized="">
        <emissions CO_abs="2634.837145" CO2_abs="274617.119291" HC_abs="17.118379" PMx_abs="3.941752" NOx_abs="101.725124" fuel_abs="118.046428" electricity_abs="0"/>
    </tripinfo>
    <tripinfo id="L0-HDV-4" depart="38.00" departLane="right-approaching_0" departPos="5.10" departSpeed="0.00" departDelay="0.00" arrival="130.70" arrivalLane="left-exit_0" arrivalPos="831.00" arrivalSpeed="18.69" duration="92.70" routeLength="1399.16" waitingTime="0.00" waitingCount="0" stopTime="0.00" timeLoss="16.18" rerouteNo="0" devices="tripinfo_L0-HDV-4 emissions_L0-HDV-4 ssm_L0-HDV-4" vType="L0-HDV-84" speedFactor="1.12" vaporized="">
        <emissions CO_abs="3375.792162" CO2_abs="281549.023595" HC_abs="21.767107" PMx_abs="4.798273" NOx_abs="109.722216" fuel_abs="121.025724" electricity_abs="0"/>
    </tripinfo>
    <tripinfo id="L4-AV-6" depart="31.30" departLane="right-approaching_0" departPos="5.10" departSpeed="0.00" departDelay="2.80" arrival="132.10" arrivalLane="left-exit_0" arrivalPos="831.00" arrivalSpeed="17.18" duration="100.80" routeLength="1399.16" waitingTime="0.60" waitingCount="1" stopTime="0.00" timeLoss="17.37" rerouteNo="0" devices="tripinfo_L4-AV-6 emissions_L4-AV-6 ssm_L4-AV-6 toc_L4-AV-6 driverstateL4-AV-6" vType="L4-AV-97@L4-AV-6" speedFactor="1.03" vaporized="">
        <emissions CO_abs="3161.402013" CO2_abs="270598.605896" HC_abs="18.583014" PMx_abs="3.807739" NOx_abs="99.463863" fuel_abs="116.319507" electricity_abs="0"/>
    </tripinfo>
    <tripinfo id="L4-CV-5" depart="12.10" departLane="top-approaching_0" departPos="5.10" departSpeed="0.00" departDelay="0.50" arrival="147.70" arrivalLane="bottom-exit_0" arrivalPos="489.60" arrivalSpeed="18.26" duration="135.60" routeLength="995.17" waitingTime="67.30" waitingCount="1" stopTime="0.00" timeLoss="81.06" rerouteNo="0" devices="tripinfo_L4-CV-5 emissions_L4-CV-5 ssm_L4-CV-5 toc_L4-CV-5 driverstateL4-CV-5" vType="L4-CV-24@L4-CV-5" speedFactor="1.10" vaporized="">
        <emissions CO_abs="13810.822769" CO2_abs="432983.641092" HC_abs="70.656251" PMx_abs="8.228876" NOx_abs="175.150728" fuel_abs="186.126515" electricity_abs="0"/>
    </tripinfo>
    <tripinfo id="L2-CV-0" depart="0.00" departLane="bottom-approaching_0" departPos="5.10" departSpeed="0.00" departDelay="0.00" arrival="149.50" arrivalLane="top-exit_1" arrivalPos="486.40" arrivalSpeed="20.01" duration="149.50" routeLength="995.17" waitingTime="76.80" waitingCount="1" stopTime="0.00" timeLoss="99.67" rerouteNo="0" devices="tripinfo_L2-CV-0 emissions_L2-CV-0 ssm_L2-CV-0 toc_L2-CV-0 driverstateL2-CV-0" vType="L2-CV-0@L2-CV-0" speedFactor="1.20" vaporized="">
        <emissions CO_abs="16300.991275" CO2_abs="485429.784371" HC_abs="84.415886" PMx_abs="9.647908" NOx_abs="199.868130" fuel_abs="208.671763" electricity_abs="0"/>
    </tripinfo>
    <tripinfo id="L0-HDV-1" depart="14.00" departLane="bottom-approaching_0" departPos="5.10" departSpeed="0.00" departDelay="4.50" arrival="151.90" arrivalLane="right-exit_1" arrivalPos="486.40" arrivalSpeed="18.47" duration="137.90" routeLength="979.93" waitingTime="59.20" waitingCount="1" stopTime="0.00" timeLoss="84.41" rerouteNo="0" devices="tripinfo_L0-HDV-1 emissions_L0-HDV-1 ssm_L0-HDV-1" vType="L0-HDV-23" speedFactor="1.12" vaporized="">
        <emissions CO_abs="13547.072367" CO2_abs="398505.614319" HC_abs="71.041560" PMx_abs="8.167758" NOx_abs="168.716443" fuel_abs="171.305294" electricity_abs="0"/>
    </tripinfo>
    <tripinfo id="L4-CV-10" depart="23.20" departLane="top-approaching_0" departPos="5.10" departSpeed="0.00" departDelay="0.00" arrival="152.30" arrivalLane="bottom-exit_0" arrivalPos="489.60" arrivalSpeed="16.81" duration="129.10" routeLength="995.17" waitingTime="48.90" waitingCount="23" stopTime="0.00" timeLoss="69.89" rerouteNo="0" devices="tripinfo_L4-CV-10 emissions_L4-CV-10 ssm_L4-CV-10 toc_L4-CV-10 driverstateL4-CV-10" vType="L4-CV-27@L4-CV-10" speedFactor="1.01" vaporized="">
        <emissions CO_abs="9184.145447" CO2_abs="353406.495347" HC_abs="48.002328" PMx_abs="5.989374" NOx_abs="138.282125" fuel_abs="151.918021" electricity_abs="0"/>
    </tripinfo>
    <tripinfo id="L2-AV-3" depart="28.50" departLane="bottom-approaching_0" departPos="5.10" departSpeed="0.00" departDelay="0.00" arrival="153.30" arrivalLane="right-exit_1" arrivalPos="486.40" arrivalSpeed="18.40" duration="124.80" routeLength="979.93" waitingTime="0.00" waitingCount="0" stopTime="0.00" timeLoss="70.70" rerouteNo="0" devices="tripinfo_L2-AV-3 emissions_L2-AV-3 ssm_L2-AV-3 toc_L2-AV-3 driverstateL2-AV-3" vType="L2-AV-80@L2-AV-3" speedFactor="1.10" vaporized="">
        <emissions CO_abs="3336.921449" CO2_abs="252392.529320" HC_abs="19.646107" PMx_abs="3.759782" NOx_abs="94.581620" fuel_abs="108.493511" electricity_abs="0"/>
    </tripinfo>
    <tripinfo id="L4-AV-2" depart="11.10" departLane="bottom-approaching_0" departPos="5.10" departSpeed="0.00" departDelay="1.60" arrival="153.60" arrivalLane="right-exit_0" arrivalPos="486.40" arrivalSpeed="13.99" duration="142.50" routeLength="979.93" waitingTime="61.10" waitingCount="1" stopTime="0.00" timeLoss="71.37" rerouteNo="0" devices="tripinfo_L4-AV-2 emissions_L4-AV-2 ssm_L4-AV-2 toc_L4-AV-2 driverstateL4-AV-2" vType="L4-AV-74@L4-AV-2" speedFactor="0.84" vaporized="">
        <emissions CO_abs="12188.197243" CO2_abs="390906.459753" HC_abs="62.812212" PMx_abs="6.610329" NOx_abs="155.086766" fuel_abs="168.039681" electricity_abs="0"/>
    </tripinfo>
    <tripinfo id="L0-HDV-3" depart="37.60" departLane="top-approaching_0" departPos="5.10" departSpeed="0.00" departDelay="9.10" arrival="154.50" arrivalLane="bottom-exit_1" arrivalPos="489.60" arrivalSpeed="17.95" duration="116.90" routeLength="995.17" waitingTime="20.40" waitingCount="1" stopTime="0.00" timeLoss="61.57" rerouteNo="0" devices="tripinfo_L0-HDV-3 emissions_L0-HDV-3 ssm_L0-HDV-3" vType="L0-HDV-44" speedFactor="1.08" vaporized="">
        <emissions CO_abs="10111.975789" CO2_abs="410175.595265" HC_abs="55.534596" PMx_abs="8.314363" NOx_abs="173.748032" fuel_abs="176.318607" electricity_abs="0"/>
    </tripinfo>
    <tripinfo id="L4-CV-11" depart="31.00" departLane="top-approaching_0" departPos="5.10" departSpeed="0.00" departDelay="5.48" arrival="154.60" arrivalLane="bottom-exit_0" arrivalPos="489.60" arrivalSpeed="16.25" duration="123.60" routeLength="995.17" waitingTime="40.60" waitingCount="27" stopTime="0.00" timeLoss="62.45" rerouteNo="0" devices="tripinfo_L4-CV-11 emissions_L4-CV-11 ssm_L4-CV-11 toc_L4-CV-11 driverstateL4-CV-11" vType="L4-CV-17@L4-CV-11" speedFactor="0.98" vaporized="">
        <emissions CO_abs="7673.287478" CO2_abs="331785.012366" HC_abs="40.434432" PMx_abs="5.244209" NOx_abs="127.423619" fuel_abs="142.623358" electricity_abs="0"/>
    </tripinfo>
    <tripinfo id="L0-HDV-0" depart="3.90" departLane="bottom-approaching_0" departPos="5.10" departSpeed="0.00" departDelay="3.90" arrival="156.00" arrivalLane="top-exit_0" arrivalPos="486.40" arrivalSpeed="15.87" duration="152.10" routeLength="995.17" waitingTime="72.50" waitingCount="1" stopTime="0.00" timeLoss="89.48" rerouteNo="0" devices="tripinfo_L0-HDV-0 emissions_L0-HDV-0 ssm_L0-HDV-0" vType="L0-HDV-88" speedFactor="0.96" vaporized="">
        <emissions CO_abs="15048.731191" CO2_abs="403225.001115" HC_abs="77.699980" PMx_abs="8.211940" NOx_abs="170.418644" fuel_abs="173.335191" electricity_abs="0"/>
    </tripinfo>
    <tripinfo id="L2-CV-9" depart="46.30" departLane="top-approaching_0" departPos="5.10" departSpeed="0.00" departDelay="3.55" arrival="156.50" arrivalLane="bottom-exit_1" arrivalPos="489.60" arrivalSpeed="17.16" duration="110.20" routeLength="995.17" waitingTime="16.40" waitingCount="3" stopTime="0.00" timeLoss="52.21" rerouteNo="0" devices="tripinfo_L2-CV-9 emissions_L2-CV-9 ssm_L2-CV-9 toc_L2-CV-9 driverstateL2-CV-9" vType="L2-CV-73@L2-CV-9" speedFactor="1.03" vaporized="">
        <emissions CO_abs="4640.795351" CO2_abs="264417.170160" HC_abs="25.680489" PMx_abs="4.113809" NOx_abs="100.558952" fuel_abs="113.663081" electricity_abs="0"/>
    </tripinfo>
    <tripinfo id="L4-AV-8" depart="38.00" departLane="bottom-approaching_0" departPos="5.10" departSpeed="0.00" departDelay="0.00" arrival="156.70" arrivalLane="right-exit_0" arrivalPos="486.40" arrivalSpeed="17.26" duration="118.70" routeLength="979.93" waitingTime="0.00" waitingCount="0" stopTime="0.00" timeLoss="61.05" rerouteNo="0" devices="tripinfo_L4-AV-8 emissions_L4-AV-8 ssm_L4-AV-8 toc_L4-AV-8 driverstateL4-AV-8" vType="L4-AV-63@L4-AV-8" speedFactor="1.04" vaporized="">
        <emissions CO_abs="3352.672485" CO2_abs="210189.678266" HC_abs="19.023220" PMx_abs="3.428756" NOx_abs="81.823612" fuel_abs="90.352105" electricity_abs="0"/>
    </tripinfo>
    <tripinfo id="L2-CV-8" depart="41.20" departLane="bottom-approaching_0" departPos="5.10" departSpeed="0.00" departDelay="3.20" arrival="158.50" arrivalLane="top-exit_1" arrivalPos="486.40" arrivalSpeed="17.81" duration="117.30" routeLength="995.17" waitingTime="33.40" waitingCount="26" stopTime="0.00" timeLoss="61.50" rerouteNo="0" devices="tripinfo_L2-CV-8 emissions_L2-CV-8 ssm_L2-CV-8 toc_L2-CV-8 driverstateL2-CV-8" vType="L2-CV-45@L2-CV-8" speedFactor="1.07" vaporized="">
        <emissions CO_abs="7222.938931" CO2_abs="310249.135819" HC_abs="38.807151" PMx_abs="5.295155" NOx_abs="121.829045" fuel_abs="133.365362" electricity_abs="0"/>
    </tripinfo>
    <tripinfo id="L4-CV-13" depart="32.20" departLane="bottom-approaching_0" departPos="5.10" departSpeed="0.00" departDelay="2.04" arrival="159.30" arrivalLane="top-exit_0" arrivalPos="486.40" arrivalSpeed="14.90" duration="127.10" routeLength="995.17" waitingTime="40.80" waitingCount="1" stopTime="0.00" timeLoss="60.34" rerouteNo="0" devices="tripinfo_L4-CV-13 emissions_L4-CV-13 ssm_L4-CV-13 toc_L4-CV-13 driverstateL4-CV-13" vType="L4-CV-29@L4-CV-13" speedFactor="0.89" vaporized="">
        <emissions CO_abs="7500.203687" CO2_abs="320635.381430" HC_abs="39.256033" PMx_abs="4.835196" NOx_abs="122.191586" fuel_abs="137.830844" electricity_abs="0"/>
    </tripinfo>
    <tripinfo id="L4-AV-12" depart="58.90" departLane="bottom-approaching_0" departPos="5.10" departSpeed="0.00" departDelay="1.90" arrival="161.60" arrivalLane="top-exit_1" arrivalPos="486.40" arrivalSpeed="17.42" duration="102.70" routeLength="995.17" waitingTime="0.00" waitingCount="0" stopTime="0.00" timeLoss="45.43" rerouteNo="0" devices="tripinfo_L4-AV-12 emissions_L4-AV-12 ssm_L4-AV-12 toc_L4-AV-12 driverstateL4-AV-12" vType="L4-AV-13@L4-AV-12" speedFactor="1.04" vaporized="">
        <emissions CO_abs="2942.701863" CO2_abs="233271.051679" HC_abs="17.237687" PMx_abs="3.375092" NOx_abs="86.726223" fuel_abs="100.273934" electricity_abs="0"/>
    </tripinfo>
    <tripinfo id="L4-CV-29" depart="67.30" departLane="top-approaching_0" departPos="5.10" departSpeed="0.00" departDelay="0.02" arrival="162.00" arrivalLane="bottom-exit_0" arrivalPos="489.60" arrivalSpeed="17.02" duration="94.70" routeLength="995.17" waitingTime="12.50" waitingCount="29" stopTime="0.00" timeLoss="36.14" rerouteNo="0" devices="tripinfo_L4-CV-29 emissions_L4-CV-29 ssm_L4-CV-29 toc_L4-CV-29 driverstateL4-CV-29" vType="L4-CV-39@L4-CV-29" speedFactor="1.02" vaporized="">
        <emissions CO_abs="4635.769857" CO2_abs="290227.632486" HC_abs="25.743107" PMx_abs="4.387795" NOx_abs="108.989271" fuel_abs="124.757829" electricity_abs="0"/>
    </tripinfo>
    <tripinfo id="L4-CV-18" depart="44.90" departLane="bottom-approaching_0" departPos="5.10" departSpeed="0.00" departDelay="3.14" arrival="162.80" arrivalLane="top-exit_0" arrivalPos="486.40" arrivalSpeed="14.80" duration="117.90" routeLength="995.17" waitingTime="28.70" waitingCount="29" stopTime="0.00" timeLoss="50.71" rerouteNo="0" devices="tripinfo_L4-CV-18 emissions_L4-CV-18 ssm_L4-CV-18 toc_L4-CV-18 driverstateL4-CV-18" vType="L4-CV-58@L4-CV-18" speedFactor="0.89" vaporized="">
        <emissions CO_abs="5802.229422" CO2_abs="296571.817986" HC_abs="31.176119" PMx_abs="4.169956" NOx_abs="110.810048" fuel_abs="127.486220" electricity_abs="0"/>
    </tripinfo>
    <tripinfo id="L0-HDV-6" depart="62.70" departLane="bottom-approaching_0" departPos="5.10" departSpeed="0.00" departDelay="5.70" arrival="163.90" arrivalLane="top-exit_1" arrivalPos="486.40" arrivalSpeed="16.24" duration="101.20" routeLength="995.17" waitingTime="0.00" waitingCount="0" stopTime="0.00" timeLoss="39.90" rerouteNo="0" devices="tripinfo_L0-HDV-6 emissions_L0-HDV-6 ssm_L0-HDV-6" vType="L0-HDV-94" speedFactor="0.98" vaporized="">
        <emissions CO_abs="3823.501451" CO2_abs="218453.379755" HC_abs="22.095625" PMx_abs="3.496614" NOx_abs="85.174819" fuel_abs="93.904828" electricity_abs="0"/>
    </tripinfo>
    <tripinfo id="L2-CV-10" depart="48.20" departLane="bottom-approaching_0" departPos="5.10" departSpeed="0.00" departDelay="0.70" arrival="164.50" arrivalLane="right-exit_0" arrivalPos="486.40" arrivalSpeed="15.03" duration="116.30" routeLength="979.93" waitingTime="0.10" waitingCount="1" stopTime="0.00" timeLoss="49.99" rerouteNo="0" devices="tripinfo_L2-CV-10 emissions_L2-CV-10 ssm_L2-CV-10 toc_L2-CV-10 driverstateL2-CV-10" vType="L2-CV-96@L2-CV-10" speedFactor="0.90" vaporized="">
        <emissions CO_abs="3754.223746" CO2_abs="258488.347070" HC_abs="21.549391" PMx_abs="3.306588" NOx_abs="94.781597" fuel_abs="111.114837" electricity_abs="0"/>
    </tripinfo>
    <tripinfo id="L4-CV-24" depart="55.70" departLane="bottom-approaching_0" departPos="5.10" departSpeed="0.00" departDelay="0.02" arrival="165.90" arrivalLane="right-exit_0" arrivalPos="486.40" arrivalSpeed="15.10" duration="110.20" routeLength="979.93" waitingTime="0.00" waitingCount="0" stopTime="0.00" timeLoss="44.30" rerouteNo="0" devices="tripinfo_L4-CV-24 emissions_L4-CV-24 ssm_L4-CV-24 toc_L4-CV-24 driverstateL4-CV-24" vType="L4-CV-69@L4-CV-24" speedFactor="0.91" vaporized="">
        <emissions CO_abs="5763.814189" CO2_abs="295193.095945" HC_abs="31.303877" PMx_abs="4.271555" NOx_abs="111.708649" fuel_abs="126.893352" electricity_abs="0"/>
    </tripinfo>
    <tripinfo id="L4-CV-34" depart="79.90" departLane="bottom-approaching_0" departPos="5.10" departSpeed="0.00" departDelay="1.02" arrival="165.90" arrivalLane="top-exit_1" arrivalPos="486.40" arrivalSpeed="18.35" duration="86.00" routeLength="995.17" waitingTime="0.00" waitingCount="0" stopTime="0.00" timeLoss="31.66" rerouteNo="0" devices="tripinfo_L4-CV-34 emissions_L4-CV-34 ssm_L4-CV-34 toc_L4-CV-34 driverstateL4-CV-34" vType="L4-CV-54@L4-CV-34" speedFactor="1.10" vaporized="">
        <emissions CO_abs="4299.451010" CO2_abs="266663.001154" HC_abs="24.850512" PMx_abs="4.319641" NOx_abs="102.600846" fuel_abs="114.628007" electricity_abs="0"/>
    </tripinfo>
    <tripinfo id="L2-CV-6" depart="34.10" departLane="top-approaching_0" departPos="5.10" departSpeed="0.00" departDelay="5.60" arrival="165.90" arrivalLane="bottom-exit_0" arrivalPos="489.60" arrivalSpeed="16.73" duration="131.80" routeLength="995.17" waitingTime="24.70" waitingCount="8" stopTime="0.00" timeLoss="72.17" rerouteNo="0" devices="tripinfo_L2-CV-6 emissions_L2-CV-6 ssm_L2-CV-6 toc_L2-CV-6 driverstateL2-CV-6" vType="L2-CV-14@L2-CV-6" speedFactor="1.00" vaporized="">
        <emissions CO_abs="9594.484778" CO2_abs="346662.700512" HC_abs="51.049917" PMx_abs="6.394996" NOx_abs="141.709267" fuel_abs="149.018745" electricity_abs="0"/>
    </tripinfo>
    <tripinfo id="L4-CV-31" depart="72.00" departLane="bottom-approaching_0" departPos="5.10" departSpeed="0.00" departDelay="0.08" arrival="167.30" arrivalLane="top-exit_0" arrivalPos="486.40" arrivalSpeed="14.98" duration="95.30" routeLength="995.17" waitingTime="0.00" waitingCount="0" stopTime="0.00" timeLoss="28.80" rerouteNo="0" devices="tripinfo_L4-CV-31 emissions_L4-CV-31 ssm_L4-CV-31 toc_L4-CV-31 driverstateL4-CV-31" vType="L4-CV-27@L4-CV-31" speedFactor="0.90" vaporized="">
        <emissions CO_abs="2915.273244" CO2_abs="247397.680845" HC_abs="16.909050" PMx_abs="3.015420" NOx_abs="88.788488" fuel_abs="106.346987" electricity_abs="0"/>
    </tripinfo>
    <tripinfo id="L4-CV-35" depart="86.80" departLane="bottom-approaching_0" departPos="5.10" departSpeed="0.00" departDelay="5.60" arrival="169.20" arrivalLane="top-exit_0" arrivalPos="486.40" arrivalSpeed="15.70" duration="82.40" routeLength="995.17" waitingTime="0.00" waitingCount="0" stopTime="0.00" timeLoss="18.97" rerouteNo="0" devices="tripinfo_L4-CV-35 emissions_L4-CV-35 ssm_L4-CV-35 toc_L4-CV-35 driverstateL4-CV-35" vType="L4-CV-16@L4-CV-35" speedFactor="0.94" vaporized="">
        <emissions CO_abs="3007.518614" CO2_abs="239052.214266" HC_abs="17.354439" PMx_abs="3.168474" NOx_abs="87.433652" fuel_abs="102.759378" electricity_abs="0"/>
    </tripinfo>
    <tripinfo id="L4-AV-17" depart="83.10" departLane="bottom-approaching_0" departPos="5.10" departSpeed="0.00" departDelay="2.35" arrival="169.30" arrivalLane="right-exit_0" arrivalPos="486.40" arrivalSpeed="16.09" duration="86.20" routeLength="979.93" waitingTime="0.00" waitingCount="0" stopTime="0.00" timeLoss="24.33" rerouteNo="0" devices="tripinfo_L4-AV-17 emissions_L4-AV-17 ssm_L4-AV-17 toc_L4-AV-17 driverstateL4-AV-17" vType="L4-AV-55@L4-AV-17" speedFactor="0.97" vaporized="">
        <emissions CO_abs="3212.712934" CO2_abs="252168.267170" HC_abs="18.392700" PMx_abs="3.368716" NOx_abs="92.714853" fuel_abs="108.397409" electricity_abs="0"/>
    </tripinfo>
    <tripinfo id="L4-CV-39" depart="90.50" departLane="bottom-approaching_0" departPos="5.10" departSpeed="0.00" departDelay="0.02" arrival="169.80" arrivalLane="right-exit_1" arrivalPos="486.40" arrivalSpeed="17.23" duration="79.30" routeLength="979.93" waitingTime="0.00" waitingCount="0" stopTime="0.00" timeLoss="21.57" rerouteNo="0" devices="tripinfo_L4-CV-39 emissions_L4-CV-39 ssm_L4-CV-39 toc_L4-CV-39 driverstateL4-CV-39" vType="L4-CV-11@L4-CV-39" speedFactor="1.03" vaporized="">
        <emissions CO_abs="2903.781873" CO2_abs="252872.172554" HC_abs="17.484185" PMx_abs="3.499749" NOx_abs="93.068212" fuel_abs="108.699687" electricity_abs="0"/>
    </tripinfo>
    <tripinfo id="L4-CV-41" depart="95.20" departLane="bottom-approaching_0" departPos="5.10" departSpeed="0.00" departDelay="0.08" arrival="170.00" arrivalLane="top-exit_1" arrivalPos="486.40" arrivalSpeed="16.63" duration="74.80" routeLength="995.17" waitingTime="0.00" waitingCount="0" stopTime="0.00" timeLoss="14.87" rerouteNo="0" devices="tripinfo_L4-CV-41 emissions_L4-CV-41 ssm_L4-CV-41 toc_L4-CV-41 driverstateL4-CV-41" vType="L4-CV-99@L4-CV-41" speedFactor="1.00" vaporized="">
        <emissions CO_abs="2333.582824" CO2_abs="218642.757183" HC_abs="14.363640" PMx_abs="3.046576" NOx_abs="80.580732" fuel_abs="93.985651" electricity_abs="0"/>
    </tripinfo>
    <tripinfo id="L2-AV-10" depart="95.00" departLane="top-approaching_0" departPos="5.10" departSpeed="0.00" departDelay="0.00" arrival="171.50" arrivalLane="bottom-exit_0" arrivalPos="489.60" arrivalSpeed="16.31" duration="76.50" routeLength="995.17" waitingTime="0.10" waitingCount="1" stopTime="0.00" timeLoss="15.40" rerouteNo="0" devices="tripinfo_L2-AV-10 emissions_L2-AV-10 ssm_L2-AV-10 toc_L2-AV-10 driverstateL2-AV-10" vType="L2-AV-79@L2-AV-10" speedFactor="0.98" vaporized="">
        <emissions CO_abs="2465.625991" CO2_abs="241822.263914" HC_abs="14.543215" PMx_abs="3.031684" NOx_abs="86.532068" fuel_abs="103.949896" electricity_abs="0"/>
    </tripinfo>