<?xml version="1.0" encoding="UTF-8"?>

<!-- generated on 03/31/21 20:01:22 by Eclipse SUMO sumo Version 1.8.0
<configuration xmlns:xsi="http://www.w3.org/2001/XMLSchema-instance" xsi:noNamespaceSchemaLocation="http://sumo.dlr.de/xsd/sumoConfiguration.xsd">

    <input>
        <net-file value="Roadworks\BaselinePenetration2\../RoadworksIntersection.net.xml"/>
        <route-files value="Roadworks\BaselinePenetration2\Route-Files/L4-CV-Route.rou.xml,Roadworks\BaselinePenetration2\Route-Files/L4-AV-Route.rou.xml,Roadworks\BaselinePenetration2\Route-Files/L2-CV-Route.rou.xml,Roadworks\BaselinePenetration2\Route-Files/L2-AV-Route.rou.xml,Roadworks\BaselinePenetration2\Route-Files/L0-HDV-Route.rou.xml"/>
        <additional-files value="Roadworks\BaselinePenetration2\../Additional-Files/Roadworks-Detectors.add.xml,Roadworks\BaselinePenetration2\../Additional-Files/Roadworks-Rerouters.add.xml,Roadworks\BaselinePenetration2\../Additional-Files/Roadworks-Traffic-lights.add.xml,Roadworks\BaselinePenetration2\../Additional-Files/Roadworks-Traffic-Signs.add.xml,Roadworks\BaselinePenetration2\PreparingVehicleModels/Vehicle-Models/L4-CV.add.xml,Roadworks\BaselinePenetration2\PreparingVehicleModels/Vehicle-Models/L4-CV-Left.add.xml,Roadworks\BaselinePenetration2\PreparingVehicleModels/Vehicle-Models/L4-CV-Right.add.xml,Roadworks\BaselinePenetration2\PreparingVehicleModels/Vehicle-Models/L4-AV.add.xml,Roadworks\BaselinePenetration2\PreparingVehicleModels/Vehicle-Models/L4-AV-Left.add.xml,Roadworks\BaselinePenetration2\PreparingVehicleModels/Vehicle-Models/L4-AV-Right.add.xml,Roadworks\BaselinePenetration2\PreparingVehicleModels/Vehicle-Models/L2-CV.add.xml,Roadworks\BaselinePenetration2\PreparingVehicleModels/Vehicle-Models/L2-CV-Left.add.xml,Roadworks\BaselinePenetration2\PreparingVehicleModels/Vehicle-Models/L2-CV-Right.add.xml,Roadworks\BaselinePenetration2\PreparingVehicleModels/Vehicle-Models/L2-AV.add.xml,Roadworks\BaselinePenetration2\PreparingVehicleModels/Vehicle-Models/L2-AV-Left.add.xml,Roadworks\BaselinePenetration2\PreparingVehicleModels/Vehicle-Models/L2-AV-Right.add.xml,Roadworks\BaselinePenetration2\PreparingVehicleModels/Vehicle-Models/L0-HDV.add.xml,Roadworks\BaselinePenetration2\PreparingVehicleModels/Vehicle-Models/L0-HDV-Left.add.xml,Roadworks\BaselinePenetration2\PreparingVehicleModels/Vehicle-Models/L0-HDV-Straight.add.xml"/>
    </input>

    <output>
        <tripinfo-output value="Roadworks\BaselinePenetration2\Output-Files\TripInfo.xml"/>
    </output>

    <time>
        <begin value="0"/>
        <step-length value="0.1"/>
    </time>

    <processing>
        <ignore-route-errors value="true"/>
        <waiting-time-memory value="300"/>
        <default.action-step-length value="0.1"/>
    </processing>

    <report>
        <no-warnings value="true"/>
    </report>

    <emissions>
        <device.emissions.probability value="1"/>
    </emissions>

    <traci_server>
        <remote-port value="55074"/>
    </traci_server>

    <gui_only>
        <quit-on-end value="true"/>
        <start value="true"/>
        <tracker-interval value="0.1"/>
    </gui_only>

</configuration>
-->

<tripinfos xmlns:xsi="http://www.w3.org/2001/XMLSchema-instance" xsi:noNamespaceSchemaLocation="http://sumo.dlr.de/xsd/tripinfo_file.xsd">
    <tripinfo id="L2-AV-0" depart="0.00" departLane="left-long-approaching_0" departPos="5.10" departSpeed="0.00" departDelay="0.00" arrival="82.60" arrivalLane="bottom-exit_0" arrivalPos="489.60" arrivalSpeed="16.85" duration="82.60" routeLength="983.54" waitingTime="10.80" waitingCount="1" stopTime="0.00" timeLoss="21.70" rerouteNo="0" devices="tripinfo_L2-AV-0 emissions_L2-AV-0 ssm_L2-AV-0 toc_L2-AV-0 driverstateL2-AV-0" vType="L2-AV-Right-32@L2-AV-0" speedFactor="1.01" vaporized="">
        <emissions CO_abs="4215.243916" CO2_abs="268516.104959" HC_abs="22.772219" PMx_abs="3.954640" NOx_abs="99.796147" fuel_abs="115.424865" electricity_abs="0"/>
    </tripinfo>
    <tripinfo id="L0-HDV-9" depart="21.00" departLane="left-long-approaching_0" departPos="5.10" departSpeed="0.00" departDelay="0.12" arrival="83.50" arrivalLane="top-exit_1" arrivalPos="486.40" arrivalSpeed="20.05" duration="62.50" routeLength="993.12" waitingTime="0.00" waitingCount="0" stopTime="0.00" timeLoss="11.02" rerouteNo="1" devices="tripinfo_L0-HDV-9 emissions_L0-HDV-9 ssm_L0-HDV-9" vType="L0-HDV-Left-48@L0-HDV-9" speedFactor="1.21" vaporized="">
        <emissions CO_abs="3185.406957" CO2_abs="239034.974889" HC_abs="20.166891" PMx_abs="4.531331" NOx_abs="96.818096" fuel_abs="102.750308" electricity_abs="0"/>
    </tripinfo>
    <tripinfo id="L4-AV-1" depart="9.50" departLane="left-long-approaching_0" departPos="5.10" departSpeed="0.00" departDelay="0.00" arrival="83.60" arrivalLane="right-exit_0" arrivalPos="486.40" arrivalSpeed="20.01" duration="74.10" routeLength="995.81" waitingTime="0.90" waitingCount="1" stopTime="0.00" timeLoss="22.73" rerouteNo="0" devices="tripinfo_L4-AV-1 emissions_L4-AV-1 ssm_L4-AV-1 toc_L4-AV-1 driverstateL4-AV-1" vType="L4-AV-0@L4-AV-1" speedFactor="1.20" vaporized="">
        <emissions CO_abs="3793.457779" CO2_abs="286469.071894" HC_abs="22.810025" PMx_abs="4.624104" NOx_abs="108.540578" fuel_abs="123.141313" electricity_abs="0"/>
    </tripinfo>
    <tripinfo id="L2-CV-4" depart="19.00" departLane="left-long-approaching_0" departPos="5.10" departSpeed="0.00" departDelay="0.00" arrival="88.30" arrivalLane="top-exit_1" arrivalPos="486.40" arrivalSpeed="18.66" duration="69.30" routeLength="993.12" waitingTime="0.00" waitingCount="0" stopTime="0.00" timeLoss="13.90" rerouteNo="1" devices="tripinfo_L2-CV-4 emissions_L2-CV-4 ssm_L2-CV-4 toc_L2-CV-4 driverstateL2-CV-4" vType="L0-HDV-11" speedFactor="1.12" vaporized="">
        <emissions CO_abs="3179.979800" CO2_abs="234412.558558" HC_abs="19.441463" PMx_abs="4.116997" NOx_abs="92.496125" fuel_abs="100.763823" electricity_abs="0"/>
    </tripinfo>
    <tripinfo id="L2-AV-2" depart="13.30" departLane="right-approaching_0" departPos="5.10" departSpeed="0.00" departDelay="3.80" arrival="89.00" arrivalLane="left-exit_0" arrivalPos="431.00" arrivalSpeed="14.80" duration="75.70" routeLength="999.16" waitingTime="0.00" waitingCount="0" stopTime="0.00" timeLoss="5.85" rerouteNo="0" devices="tripinfo_L2-AV-2 emissions_L2-AV-2 ssm_L2-AV-2 toc_L2-AV-2 driverstateL2-AV-2" vType="L2-AV-84@L2-AV-2" speedFactor="0.89" vaporized="">
        <emissions CO_abs="1830.315234" CO2_abs="229660.042273" HC_abs="11.262110" PMx_abs="2.553066" NOx_abs="80.364856" fuel_abs="98.721835" electricity_abs="0"/>
    </tripinfo>
    <tripinfo id="L2-AV-1" depart="4.80" departLane="right-approaching_0" departPos="5.10" departSpeed="0.00" departDelay="0.05" arrival="90.80" arrivalLane="bottom-exit_0" arrivalPos="489.60" arrivalSpeed="16.95" duration="86.00" routeLength="992.90" waitingTime="8.60" waitingCount="2" stopTime="0.00" timeLoss="26.46" rerouteNo="0" devices="tripinfo_L2-AV-1 emissions_L2-AV-1 ssm_L2-AV-1 toc_L2-AV-1 driverstateL2-AV-1" vType="L2-AV-30@L2-AV-1" speedFactor="1.02" vaporized="">
        <emissions CO_abs="4578.675275" CO2_abs="268053.177248" HC_abs="24.788947" PMx_abs="4.097005" NOx_abs="101.220404" fuel_abs="115.225963" electricity_abs="0"/>
    </tripinfo>
    <tripinfo id="L0-HDV-4" depart="9.30" departLane="right-approaching_0" departPos="5.10" departSpeed="0.00" departDelay="0.02" arrival="97.40" arrivalLane="left-exit_0" arrivalPos="431.00" arrivalSpeed="12.92" duration="88.10" routeLength="999.16" waitingTime="0.00" waitingCount="0" stopTime="0.00" timeLoss="8.75" rerouteNo="0" devices="tripinfo_L0-HDV-4 emissions_L0-HDV-4 ssm_L0-HDV-4" vType="L0-HDV-14" speedFactor="0.78" vaporized="">
        <emissions CO_abs="2651.107108" CO2_abs="196179.278474" HC_abs="16.582580" PMx_abs="2.826825" NOx_abs="75.341935" fuel_abs="84.329820" electricity_abs="0"/>
    </tripinfo>
    <tripinfo id="L2-CV-6" depart="28.50" departLane="right-approaching_0" departPos="5.10" departSpeed="0.00" departDelay="0.00" arrival="99.90" arrivalLane="left-exit_1" arrivalPos="431.00" arrivalSpeed="17.37" duration="71.40" routeLength="999.16" waitingTime="0.00" waitingCount="0" stopTime="0.00" timeLoss="11.89" rerouteNo="0" devices="tripinfo_L2-CV-6 emissions_L2-CV-6 ssm_L2-CV-6 toc_L2-CV-6 driverstateL2-CV-6" vType="L2-CV-73@L2-CV-6" speedFactor="1.04" vaporized="">
        <emissions CO_abs="2467.204974" CO2_abs="229830.213682" HC_abs="14.720175" PMx_abs="3.340291" NOx_abs="85.013438" fuel_abs="98.794456" electricity_abs="0"/>
    </tripinfo>
    <tripinfo id="L0-HDV-14" depart="35.30" departLane="left-long-approaching_0" departPos="5.10" departSpeed="0.00" departDelay="2.82" arrival="101.90" arrivalLane="right-exit_1" arrivalPos="486.40" arrivalSpeed="20.13" duration="66.60" routeLength="995.81" waitingTime="0.00" waitingCount="0" stopTime="0.00" timeLoss="15.79" rerouteNo="0" devices="tripinfo_L0-HDV-14 emissions_L0-HDV-14 ssm_L0-HDV-14" vType="L0-HDV-Straight-57" speedFactor="1.21" vaporized="">
        <emissions CO_abs="4052.667551" CO2_abs="281669.087446" HC_abs="25.180538" PMx_abs="5.463556" NOx_abs="115.813219" fuel_abs="121.076762" electricity_abs="0"/>
    </tripinfo>
    <tripinfo id="L0-HDV-13" depart="32.90" departLane="left-long-approaching_0" departPos="5.10" departSpeed="0.00" departDelay="2.74" arrival="103.50" arrivalLane="right-exit_0" arrivalPos="486.40" arrivalSpeed="16.60" duration="70.60" routeLength="995.81" waitingTime="0.00" waitingCount="0" stopTime="0.00" timeLoss="8.70" rerouteNo="0" devices="tripinfo_L0-HDV-13 emissions_L0-HDV-13 ssm_L0-HDV-13" vType="L0-HDV-Straight-33" speedFactor="1.00" vaporized="">
        <emissions CO_abs="2689.491920" CO2_abs="209228.798842" HC_abs="16.987207" PMx_abs="3.677289" NOx_abs="83.344369" fuel_abs="89.938262" electricity_abs="0"/>
    </tripinfo>
    <tripinfo id="L2-CV-3" depart="14.30" departLane="left-long-approaching_0" departPos="5.10" departSpeed="0.00" departDelay="0.05" arrival="105.70" arrivalLane="top-exit_0" arrivalPos="486.40" arrivalSpeed="15.07" duration="91.40" routeLength="993.12" waitingTime="8.50" waitingCount="2" stopTime="0.00" timeLoss="23.78" rerouteNo="1" devices="tripinfo_L2-CV-3 emissions_L2-CV-3 ssm_L2-CV-3 toc_L2-CV-3 driverstateL2-CV-3" vType="L0-HDV-3" speedFactor="0.92" vaporized="">
        <emissions CO_abs="5035.570908" CO2_abs="284578.805169" HC_abs="28.457804" PMx_abs="4.813436" NOx_abs="112.881320" fuel_abs="122.329150" electricity_abs="0"/>
    </tripinfo>
    <tripinfo id="L0-HDV-10" depart="23.20" departLane="left-long-approaching_0" departPos="5.10" departSpeed="0.00" departDelay="0.00" arrival="111.40" arrivalLane="bottom-exit_0" arrivalPos="489.60" arrivalSpeed="12.18" duration="88.20" routeLength="983.54" waitingTime="0.00" waitingCount="0" stopTime="0.00" timeLoss="4.27" rerouteNo="0" devices="tripinfo_L0-HDV-10 emissions_L0-HDV-10 ssm_L0-HDV-10" vType="L0-HDV-75" speedFactor="0.73" vaporized="">
        <emissions CO_abs="2479.528997" CO2_abs="188113.676982" HC_abs="15.640112" PMx_abs="2.842467" NOx_abs="73.407691" fuel_abs="80.862446" electricity_abs="0"/>
    </tripinfo>
    <tripinfo id="L2-CV-5" depart="25.80" departLane="left-long-approaching_0" departPos="5.10" departSpeed="0.00" departDelay="2.05" arrival="111.50" arrivalLane="top-exit_0" arrivalPos="486.40" arrivalSpeed="15.30" duration="85.70" routeLength="993.12" waitingTime="3.70" waitingCount="1" stopTime="0.00" timeLoss="18.05" rerouteNo="1" devices="tripinfo_L2-CV-5 emissions_L2-CV-5 ssm_L2-CV-5 toc_L2-CV-5 driverstateL2-CV-5" vType="L2-CV-Left-45@L2-CV-5" speedFactor="0.92" vaporized="">
        <emissions CO_abs="3501.174603" CO2_abs="242380.633221" HC_abs="20.405722" PMx_abs="3.488736" NOx_abs="91.395398" fuel_abs="104.190140" electricity_abs="0"/>
    </tripinfo>
    <tripinfo id="L0-HDV-11" depart="28.80" departLane="left-long-approaching_0" departPos="5.10" departSpeed="0.00" departDelay="3.28" arrival="112.30" arrivalLane="top-exit_1" arrivalPos="486.40" arrivalSpeed="16.69" duration="83.50" routeLength="993.12" waitingTime="0.20" waitingCount="2" stopTime="0.00" timeLoss="21.55" rerouteNo="1" devices="tripinfo_L0-HDV-11 emissions_L0-HDV-11 ssm_L0-HDV-11" vType="L0-HDV-Left-56@L0-HDV-11" speedFactor="1.00" vaporized="">
        <emissions CO_abs="3780.118330" CO2_abs="243627.825508" HC_abs="22.814524" PMx_abs="4.146689" NOx_abs="97.080512" fuel_abs="104.725585" electricity_abs="0"/>
    </tripinfo>
    <tripinfo id="L4-AV-2" depart="19.00" departLane="right-approaching_0" departPos="5.10" departSpeed="0.00" departDelay="0.00" arrival="115.30" arrivalLane="bottom-exit_0" arrivalPos="489.60" arrivalSpeed="14.99" duration="96.30" routeLength="992.90" waitingTime="7.80" waitingCount="2" stopTime="0.00" timeLoss="28.98" rerouteNo="0" devices="tripinfo_L4-AV-2 emissions_L4-AV-2 ssm_L4-AV-2 toc_L4-AV-2 driverstateL4-AV-2" vType="L4-AV-78@L4-AV-2" speedFactor="0.90" vaporized="">
        <emissions CO_abs="4578.773226" CO2_abs="266232.712648" HC_abs="25.132640" PMx_abs="3.807988" NOx_abs="100.395644" fuel_abs="114.443770" electricity_abs="0"/>
    </tripinfo>
    <tripinfo id="L0-HDV-3" depart="7.00" departLane="top-approaching_0" departPos="5.10" departSpeed="0.00" departDelay="0.04" arrival="143.60" arrivalLane="bottom-exit_0" arrivalPos="489.60" arrivalSpeed="19.43" duration="136.60" routeLength="995.17" waitingTime="62.10" waitingCount="1" stopTime="0.00" timeLoss="85.31" rerouteNo="0" devices="tripinfo_L0-HDV-3 emissions_L0-HDV-3 ssm_L0-HDV-3" vType="L0-HDV-45" speedFactor="1.17" vaporized="">
        <emissions CO_abs="14205.331421" CO2_abs="427133.059235" HC_abs="74.695399" PMx_abs="8.746571" NOx_abs="179.783654" fuel_abs="183.611191" electricity_abs="0"/>
    </tripinfo>
    <tripinfo id="L0-HDV-18" depart="41.80" departLane="top-approaching_0" departPos="5.10" departSpeed="0.00" departDelay="0.04" arrival="143.60" arrivalLane="left-exit_1" arrivalPos="431.00" arrivalSpeed="17.68" duration="101.80" routeLength="986.28" waitingTime="26.80" waitingCount="1" stopTime="0.00" timeLoss="43.62" rerouteNo="0" devices="tripinfo_L0-HDV-18 emissions_L0-HDV-18 ssm_L0-HDV-18" vType="L0-HDV-50" speedFactor="1.06" vaporized="">
        <emissions CO_abs="7740.264879" CO2_abs="298489.211060" HC_abs="42.078230" PMx_abs="5.621121" NOx_abs="122.138361" fuel_abs="128.310096" electricity_abs="0"/>
    </tripinfo>
    <tripinfo id="L4-AV-5" depart="48.80" departLane="top-approaching_0" departPos="5.10" departSpeed="0.00" departDelay="1.30" arrival="144.90" arrivalLane="left-exit_1" arrivalPos="431.00" arrivalSpeed="19.80" duration="96.10" routeLength="986.28" waitingTime="13.70" waitingCount="1" stopTime="0.00" timeLoss="44.00" rerouteNo="0" devices="tripinfo_L4-AV-5 emissions_L4-AV-5 ssm_L4-AV-5 toc_L4-AV-5 driverstateL4-AV-5" vType="L4-AV-34@L4-AV-5" speedFactor="1.19" vaporized="">
        <emissions CO_abs="5644.099224" CO2_abs="291564.398146" HC_abs="31.510273" PMx_abs="4.977934" NOx_abs="114.874539" fuel_abs="125.332460" electricity_abs="0"/>
    </tripinfo>
    <tripinfo id="L0-HDV-0" depart="3.20" departLane="bottom-approaching_0" departPos="5.10" departSpeed="0.00" departDelay="3.20" arrival="145.10" arrivalLane="top-exit_0" arrivalPos="486.40" arrivalSpeed="15.87" duration="141.90" routeLength="995.17" waitingTime="65.80" waitingCount="1" stopTime="0.00" timeLoss="79.37" rerouteNo="0" devices="tripinfo_L0-HDV-0 emissions_L0-HDV-0 ssm_L0-HDV-0" vType="L0-HDV-88" speedFactor="0.96" vaporized="">
        <emissions CO_abs="13634.529277" CO2_abs="380973.857948" HC_abs="70.733414" PMx_abs="7.681399" NOx_abs="160.273988" fuel_abs="163.769683" electricity_abs="0"/>
    </tripinfo>
    <tripinfo id="L0-HDV-1" depart="3.30" departLane="bottom-approaching_0" departPos="5.10" departSpeed="0.00" departDelay="0.98" arrival="145.30" arrivalLane="right-exit_1" arrivalPos="486.40" arrivalSpeed="18.49" duration="142.00" routeLength="979.93" waitingTime="63.90" waitingCount="1" stopTime="0.00" timeLoss="88.49" rerouteNo="0" devices="tripinfo_L0-HDV-1 emissions_L0-HDV-1 ssm_L0-HDV-1" vType="L0-HDV-23" speedFactor="1.12" vaporized="">
        <emissions CO_abs="14305.695366" CO2_abs="409015.588443" HC_abs="74.690514" PMx_abs="8.415851" NOx_abs="173.317649" fuel_abs="175.823499" electricity_abs="0"/>
    </tripinfo>
    <tripinfo id="L4-CV-1" depart="9.50" departLane="bottom-approaching_0" departPos="5.10" departSpeed="0.00" departDelay="0.00" arrival="146.40" arrivalLane="top-exit_1" arrivalPos="486.40" arrivalSpeed="16.26" duration="136.90" routeLength="995.17" waitingTime="57.10" waitingCount="1" stopTime="0.00" timeLoss="75.74" rerouteNo="0" devices="tripinfo_L4-CV-1 emissions_L4-CV-1 ssm_L4-CV-1 toc_L4-CV-1 driverstateL4-CV-1" vType="L4-CV-89@L4-CV-1" speedFactor="0.98" vaporized="">
        <emissions CO_abs="10519.270074" CO2_abs="366443.909209" HC_abs="54.271082" PMx_abs="6.348088" NOx_abs="144.926389" fuel_abs="157.522955" electricity_abs="0"/>
    </tripinfo>
    <tripinfo id="L4-AV-0" depart="0.00" departLane="bottom-approaching_0" departPos="5.10" departSpeed="0.00" departDelay="0.00" arrival="147.10" arrivalLane="right-exit_0" arrivalPos="486.40" arrivalSpeed="13.99" duration="147.10" routeLength="979.93" waitingTime="65.20" waitingCount="1" stopTime="0.00" timeLoss="75.93" rerouteNo="0" devices="tripinfo_L4-AV-0 emissions_L4-AV-0 ssm_L4-AV-0 toc_L4-AV-0 driverstateL4-AV-0" vType="L4-AV-74@L4-AV-0" speedFactor="0.84" vaporized="">
        <emissions CO_abs="12886.854583" CO2_abs="400168.832393" HC_abs="66.176837" PMx_abs="6.810932" NOx_abs="159.065342" fuel_abs="172.021598" electricity_abs="0"/>
    </tripinfo>
    <tripinfo id="L0-HDV-6" depart="15.90" departLane="bottom-approaching_0" departPos="5.10" departSpeed="0.00" departDelay="1.98" arrival="147.60" arrivalLane="top-exit_1" arrivalPos="486.40" arrivalSpeed="17.66" duration="131.70" routeLength="995.17" waitingTime="54.90" waitingCount="1" stopTime="0.00" timeLoss="76.95" rerouteNo="0" devices="tripinfo_L0-HDV-6 emissions_L0-HDV-6 ssm_L0-HDV-6" vType="L0-HDV-26" speedFactor="1.09" vaporized="">
        <emissions CO_abs="11284.074015" CO2_abs="347379.520994" HC_abs="59.189070" PMx_abs="6.874861" NOx_abs="144.872318" fuel_abs="149.327688" electricity_abs="0"/>
    </tripinfo>
    <tripinfo id="L2-CV-2" depart="12.50" departLane="bottom-approaching_0" departPos="5.10" departSpeed="0.00" departDelay="3.00" arrival="148.90" arrivalLane="right-exit_0" arrivalPos="486.40" arrivalSpeed="16.59" duration="136.40" routeLength="979.93" waitingTime="53.50" waitingCount="1" stopTime="0.00" timeLoss="76.58" rerouteNo="0" devices="tripinfo_L2-CV-2 emissions_L2-CV-2 ssm_L2-CV-2 toc_L2-CV-2 driverstateL2-CV-2" vType="L2-CV-56@L2-CV-2" speedFactor="1.00" vaporized="">
        <emissions CO_abs="10500.896681" CO2_abs="372374.765110" HC_abs="54.582271" PMx_abs="6.518097" NOx_abs="148.041764" fuel_abs="160.072197" electricity_abs="0"/>
    </tripinfo>
    <tripinfo id="L2-AV-3" depart="19.60" departLane="bottom-approaching_0" departPos="5.10" departSpeed="0.00" departDelay="5.35" arrival="149.90" arrivalLane="right-exit_1" arrivalPos="486.40" arrivalSpeed="17.64" duration="130.30" routeLength="979.93" waitingTime="0.00" waitingCount="0" stopTime="0.00" timeLoss="73.76" rerouteNo="0" devices="tripinfo_L2-AV-3 emissions_L2-AV-3 ssm_L2-AV-3 toc_L2-AV-3 driverstateL2-AV-3" vType="L2-AV-11@L2-AV-3" speedFactor="1.06" vaporized="">
        <emissions CO_abs="3425.347488" CO2_abs="222019.738477" HC_abs="19.690127" PMx_abs="3.596557" NOx_abs="86.028639" fuel_abs="95.437362" electricity_abs="0"/>
    </tripinfo>
    <tripinfo id="L4-CV-3" depart="28.50" departLane="top-approaching_0" departPos="5.10" departSpeed="0.00" departDelay="0.00" arrival="150.00" arrivalLane="bottom-exit_0" arrivalPos="489.60" arrivalSpeed="16.04" duration="121.50" routeLength="995.17" waitingTime="32.80" waitingCount="3" stopTime="0.00" timeLoss="59.56" rerouteNo="0" devices="tripinfo_L4-CV-3 emissions_L4-CV-3 ssm_L4-CV-3 toc_L4-CV-3 driverstateL4-CV-3" vType="L4-CV-95@L4-CV-3" speedFactor="0.96" vaporized="">
        <emissions CO_abs="7105.101298" CO2_abs="321730.051472" HC_abs="37.744271" PMx_abs="4.908214" NOx_abs="122.695836" fuel_abs="138.301036" electricity_abs="0"/>
    </tripinfo>
    <tripinfo id="L2-AV-10" depart="53.90" departLane="top-approaching_0" departPos="5.10" departSpeed="0.00" departDelay="6.40" arrival="152.00" arrivalLane="bottom-exit_0" arrivalPos="489.60" arrivalSpeed="16.09" duration="98.10" routeLength="995.17" waitingTime="0.00" waitingCount="0" stopTime="0.00" timeLoss="36.19" rerouteNo="0" devices="tripinfo_L2-AV-10 emissions_L2-AV-10 ssm_L2-AV-10 toc_L2-AV-10 driverstateL2-AV-10" vType="L2-AV-55@L2-AV-10" speedFactor="0.97" vaporized="">
        <emissions CO_abs="2963.680823" CO2_abs="237759.741106" HC_abs="17.022904" PMx_abs="3.149151" NOx_abs="86.893622" fuel_abs="102.203757" electricity_abs="0"/>
    </tripinfo>
    <tripinfo id="L0-HDV-35" depart="81.20" departLane="top-approaching_0" departPos="5.10" departSpeed="0.00" departDelay="0.00" arrival="152.20" arrivalLane="bottom-exit_1" arrivalPos="489.60" arrivalSpeed="17.43" duration="71.00" routeLength="995.17" waitingTime="0.00" waitingCount="0" stopTime="0.00" timeLoss="13.98" rerouteNo="0" devices="tripinfo_L0-HDV-35 emissions_L0-HDV-35 ssm_L0-HDV-35" vType="L0-HDV-94" speedFactor="1.05" vaporized="">
        <emissions CO_abs="2174.329225" CO2_abs="192039.718003" HC_abs="14.019899" PMx_abs="2.925307" NOx_abs="73.030527" fuel_abs="82.549895" electricity_abs="0"/>
    </tripinfo>
    <tripinfo id="L0-HDV-21" depart="54.00" departLane="top-approaching_0" departPos="5.10" departSpeed="0.00" departDelay="5.28" arrival="153.60" arrivalLane="left-exit_1" arrivalPos="431.00" arrivalSpeed="19.48" duration="99.60" routeLength="986.28" waitingTime="7.30" waitingCount="1" stopTime="0.00" timeLoss="46.66" rerouteNo="0" devices="tripinfo_L0-HDV-21 emissions_L0-HDV-21 ssm_L0-HDV-21" vType="L0-HDV-35" speedFactor="1.17" vaporized="">
        <emissions CO_abs="4937.406895" CO2_abs="241784.182186" HC_abs="28.084306" PMx_abs="4.592777" NOx_abs="99.630172" fuel_abs="103.933341" electricity_abs="0"/>
    </tripinfo>
    <tripinfo id="L0-HDV-12" depart="27.90" departLane="bottom-approaching_0" departPos="5.10" departSpeed="0.00" departDelay="0.06" arrival="154.30" arrivalLane="right-exit_0" arrivalPos="486.40" arrivalSpeed="15.31" duration="126.40" routeLength="979.93" waitingTime="0.00" waitingCount="0" stopTime="0.00" timeLoss="61.65" rerouteNo="0" devices="tripinfo_L0-HDV-12 emissions_L0-HDV-12 ssm_L0-HDV-12" vType="L0-HDV-7" speedFactor="0.92" vaporized="">
        <emissions CO_abs="6515.095482" CO2_abs="268609.598617" HC_abs="35.857802" PMx_abs="4.953631" NOx_abs="110.174479" fuel_abs="115.465582" electricity_abs="0"/>
    </tripinfo>
    <tripinfo id="L0-HDV-19" depart="44.10" departLane="bottom-approaching_0" departPos="5.10" departSpeed="0.00" departDelay="0.02" arrival="155.40" arrivalLane="top-exit_0" arrivalPos="486.40" arrivalSpeed="14.50" duration="111.30" routeLength="995.17" waitingTime="0.00" waitingCount="0" stopTime="0.00" timeLoss="42.63" rerouteNo="0" devices="tripinfo_L0-HDV-19 emissions_L0-HDV-19 ssm_L0-HDV-19" vType="L0-HDV-31" speedFactor="0.87" vaporized="">
        <emissions CO_abs="3090.257939" CO2_abs="186563.095423" HC_abs="18.066733" PMx_abs="2.811254" NOx_abs="71.882654" fuel_abs="80.196497" electricity_abs="0"/>
    </tripinfo>
    <tripinfo id="L0-HDV-24" depart="56.30" departLane="bottom-approaching_0" departPos="5.10" departSpeed="0.00" departDelay="0.62" arrival="156.40" arrivalLane="right-exit_1" arrivalPos="486.40" arrivalSpeed="19.09" duration="100.10" routeLength="979.93" waitingTime="0.00" waitingCount="0" stopTime="0.00" timeLoss="47.99" rerouteNo="0" devices="tripinfo_L0-HDV-24 emissions_L0-HDV-24 ssm_L0-HDV-24" vType="L0-HDV-86" speedFactor="1.15" vaporized="">
        <emissions CO_abs="5510.400856" CO2_abs="271134.531293" HC_abs="31.312363" PMx_abs="4.813119" NOx_abs="108.935905" fuel_abs="116.550436" electricity_abs="0"/>
    </tripinfo>
    <tripinfo id="L4-AV-3" depart="31.00" departLane="bottom-approaching_0" departPos="5.10" departSpeed="0.00" departDelay="2.50" arrival="157.10" arrivalLane="top-exit_0" arrivalPos="486.40" arrivalSpeed="12.85" duration="126.10" routeLength="995.17" waitingTime="0.00" waitingCount="0" stopTime="0.00" timeLoss="48.49" rerouteNo="0" devices="tripinfo_L4-AV-3 emissions_L4-AV-3 ssm_L4-AV-3 toc_L4-AV-3 driverstateL4-AV-3" vType="L4-AV-71@L4-AV-3" speedFactor="0.77" vaporized="">
        <emissions CO_abs="2347.782483" CO2_abs="226069.251244" HC_abs="15.503047" PMx_abs="2.412139" NOx_abs="80.047385" fuel_abs="97.179127" electricity_abs="0"/>
    </tripinfo>
    <tripinfo id="L2-CV-12" depart="60.10" departLane="bottom-approaching_0" departPos="5.10" departSpeed="0.00" departDelay="3.10" arrival="157.20" arrivalLane="top-exit_1" arrivalPos="486.40" arrivalSpeed="16.38" duration="97.10" routeLength="995.17" waitingTime="0.00" waitingCount="0" stopTime="0.00" timeLoss="36.30" rerouteNo="0" devices="tripinfo_L2-CV-12 emissions_L2-CV-12 ssm_L2-CV-12 toc_L2-CV-12 driverstateL2-CV-12" vType="L2-CV-82@L2-CV-12" speedFactor="0.98" vaporized="">
        <emissions CO_abs="3075.882601" CO2_abs="258902.217537" HC_abs="18.459375" PMx_abs="3.394575" NOx_abs="94.296526" fuel_abs="111.292143" electricity_abs="0"/>
    </tripinfo>
    <tripinfo id="L2-CV-8" depart="38.00" departLane="bottom-approaching_0" departPos="5.10" departSpeed="0.00" departDelay="0.00" arrival="157.90" arrivalLane="right-exit_0" arrivalPos="486.40" arrivalSpeed="15.02" duration="119.90" routeLength="979.93" waitingTime="0.00" waitingCount="0" stopTime="0.00" timeLoss="53.63" rerouteNo="0" devices="tripinfo_L2-CV-8 emissions_L2-CV-8 ssm_L2-CV-8 toc_L2-CV-8 driverstateL2-CV-8" vType="L2-CV-39@L2-CV-8" speedFactor="0.90" vaporized="">
        <emissions CO_abs="3454.653953" CO2_abs="254803.668544" HC_abs="19.821571" PMx_abs="3.232546" NOx_abs="92.659220" fuel_abs="109.530760" electricity_abs="0"/>
    </tripinfo>
    <tripinfo id="L2-CV-9" depart="45.50" departLane="top-approaching_0" departPos="5.10" departSpeed="0.00" departDelay="2.75" arrival="158.20" arrivalLane="left-exit_0" arrivalPos="431.00" arrivalSpeed="14.12" duration="112.70" routeLength="986.28" waitingTime="7.80" waitingCount="3" stopTime="0.00" timeLoss="39.80" rerouteNo="0" devices="tripinfo_L2-CV-9 emissions_L2-CV-9 ssm_L2-CV-9 toc_L2-CV-9 driverstateL2-CV-9" vType="L2-CV-57@L2-CV-9" speedFactor="0.85" vaporized="">
        <emissions CO_abs="5118.423910" CO2_abs="267526.789459" HC_abs="28.716312" PMx_abs="3.838424" NOx_abs="102.042262" fuel_abs="115.000573" electricity_abs="0"/>
    </tripinfo>
    <tripinfo id="L0-HDV-23" depart="53.40" departLane="bottom-approaching_0" departPos="5.10" departSpeed="0.00" departDelay="0.04" arrival="158.60" arrivalLane="top-exit_0" arrivalPos="486.40" arrivalSpeed="15.82" duration="105.20" routeLength="995.17" waitingTime="0.00" waitingCount="0" stopTime="0.00" timeLoss="61.15" rerouteNo="0" devices="tripinfo_L0-HDV-23 emissions_L0-HDV-23 ssm_L0-HDV-23" vType="L0-HDV-2" speedFactor="1.36" vaporized="">
        <emissions CO_abs="5284.301856" CO2_abs="252374.978713" HC_abs="29.970341" PMx_abs="4.697366" NOx_abs="103.819935" fuel_abs="108.486130" electricity_abs="0"/>
    </tripinfo>
    <tripinfo id="L2-CV-11" depart="56.30" departLane="top-approaching_0" departPos="5.10" departSpeed="0.00" departDelay="4.05" arrival="159.20" arrivalLane="left-exit_1" arrivalPos="431.00" arrivalSpeed="15.85" duration="102.90" routeLength="986.28" waitingTime="5.30" waitingCount="2" stopTime="0.00" timeLoss="37.90" rerouteNo="0" devices="tripinfo_L2-CV-11 emissions_L2-CV-11 ssm_L2-CV-11 toc_L2-CV-11 driverstateL2-CV-11" vType="L2-CV-26@L2-CV-11" speedFactor="0.95" vaporized="">
        <emissions CO_abs="4537.417176" CO2_abs="265604.344555" HC_abs="25.591575" PMx_abs="4.120403" NOx_abs="102.252054" fuel_abs="114.173251" electricity_abs="0"/>
    </tripinfo>
    <tripinfo id="L0-HDV-29" depart="70.10" departLane="bottom-approaching_0" departPos="5.10" departSpeed="0.00" departDelay="2.82" arrival="159.50" arrivalLane="top-exit_1" arrivalPos="486.40" arrivalSpeed="18.31" duration="89.40" routeLength="995.17" waitingTime="0.00" waitingCount="0" stopTime="0.00" timeLoss="35.02" rerouteNo="0" devices="tripinfo_L0-HDV-29 emissions_L0-HDV-29 ssm_L0-HDV-29" vType="L0-HDV-27" speedFactor="1.10" vaporized="">
        <emissions CO_abs="4988.772415" CO2_abs="279592.526921" HC_abs="29.330599" PMx_abs="5.401627" NOx_abs="116.007729" fuel_abs="120.184877" electricity_abs="0"/>
    </tripinfo>
    <tripinfo id="L0-HDV-8" depart="22.40" departLane="bottom-approaching_0" departPos="5.10" departSpeed="0.00" departDelay="3.84" arrival="161.20" arrivalLane="left-exit_1" arrivalPos="431.00" arrivalSpeed="19.42" duration="138.80" routeLength="996.90" waitingTime="63.30" waitingCount="2" stopTime="0.00" timeLoss="85.55" rerouteNo="0" devices="tripinfo_L0-HDV-8 emissions_L0-HDV-8 ssm_L0-HDV-8" vType="L0-HDV-72" speedFactor="1.17" vaporized="">
        <emissions CO_abs="15578.331814" CO2_abs="488573.578292" HC_abs="82.456013" PMx_abs="10.599638" NOx_abs="211.264791" fuel_abs="210.020880" electricity_abs="0"/>
    </tripinfo>
    <tripinfo id="L2-AV-14" depart="66.50" departLane="bottom-approaching_0" departPos="5.10" departSpeed="0.00" departDelay="0.00" arrival="162.90" arrivalLane="right-exit_0" arrivalPos="486.40" arrivalSpeed="15.66" duration="96.40" routeLength="979.93" waitingTime="0.00" waitingCount="0" stopTime="0.00" timeLoss="32.83" rerouteNo="0" devices="tripinfo_L2-AV-14 emissions_L2-AV-14 ssm_L2-AV-14 toc_L2-AV-14 driverstateL2-AV-14" vType="L2-AV-86@L2-AV-14" speedFactor="0.94" vaporized="">