<?xml version="1.0" encoding="UTF-8"?>

<!-- generated on 02/25/21 18:47:09 by Eclipse SUMO duarouter Version 1.8.0
<configuration xmlns:xsi="http://www.w3.org/2001/XMLSchema-instance" xsi:noNamespaceSchemaLocation="http://sumo.dlr.de/xsd/duarouterConfiguration.xsd">

    <input>
        <net-file value="Roadworks/RoadworksIntersection.net.xml"/>
        <route-files value="trips.trips.xml"/>
    </input>

    <output>
        <output-file value="Roadworks/Route-Files/L0-HDV-Route.rou.xml"/>
        <alternatives-output value="Roadworks/Route-Files/L0-HDV-Route.rou.alt.xml"/>
    </output>

    <time>
        <begin value="0"/>
        <end value="3600"/>
    </time>

    <report>
        <no-warnings value="true"/>
        <ignore-errors value="true"/>
        <no-step-log value="true"/>
    </report>

</configuration>
-->

<routes xmlns:xsi="http://www.w3.org/2001/XMLSchema-instance" xsi:noNamespaceSchemaLocation="http://sumo.dlr.de/xsd/routes_file.xsd">
    <vehicle id="L0-HDV-0" type="L0-HDV" depart="0.00">
        <route edges="left-long-approaching bottom-exit"/>
    </vehicle>
    <vehicle id="L0-HDV-1" type="L0-HDV" depart="0.70">
        <route edges="right-approaching bottom-exit"/>
    </vehicle>
    <vehicle id="L0-HDV-2" type="L0-HDV" depart="1.40">
        <route edges="right-approaching left-exit"/>
    </vehicle>
    <vehicle id="L0-HDV-3" type="L0-HDV" depart="2.10">
        <route edges="bottom-approaching right-exit"/>
    </vehicle>
    <vehicle id="L0-HDV-4" type="L0-HDV" depart="2.80">
        <route edges="bottom-approaching left-exit"/>
    </vehicle>
    <vehicle id="L0-HDV-6" type="L0-HDV" depart="4.20">
        <route edges="left-long-approaching top-exit"/>
    </vehicle>
    <vehicle id="L0-HDV-8" type="L0-HDV" depart="5.60">
        <route edges="right-approaching top-exit"/>
    </vehicle>
    <vehicle id="L0-HDV-9" type="L0-HDV" depart="6.30">
        <route edges="right-approaching left-exit"/>
    </vehicle>
    <vehicle id="L0-HDV-10" type="L0-HDV" depart="7.00">
        <route edges="top-approaching bottom-exit"/>
    </vehicle>
    <vehicle id="L0-HDV-11" type="L0-HDV" depart="7.70">
        <route edges="top-approaching left-exit"/>
    </vehicle>
    <vehicle id="L0-HDV-13" type="L0-HDV" depart="9.10">
        <route edges="left-long-approaching top-exit"/>
    </vehicle>
    <vehicle id="L0-HDV-14" type="L0-HDV" depart="9.80">
        <route edges="bottom-approaching right-exit"/>
    </vehicle>
    <vehicle id="L0-HDV-15" type="L0-HDV" depart="10.50">
        <route edges="right-approaching left-exit"/>
    </vehicle>
    <vehicle id="L0-HDV-16" type="L0-HDV" depart="11.20">
        <route edges="right-approaching bottom-exit"/>
    </vehicle>
    <vehicle id="L0-HDV-18" type="L0-HDV" depart="12.60">
        <route edges="right-approaching left-exit"/>
    </vehicle>
    <vehicle id="L0-HDV-19" type="L0-HDV" depart="13.30">
        <route edges="left-long-approaching right-exit"/>
    </vehicle>
    <vehicle id="L0-HDV-21" type="L0-HDV" depart="14.70">
        <route edges="top-approaching right-exit"/>
    </vehicle>
    <vehicle id="L0-HDV-22" type="L0-HDV" depart="15.40">
        <route edges="bottom-approaching right-exit"/>
    </vehicle>
    <vehicle id="L0-HDV-23" type="L0-HDV" depart="16.10">
        <route edges="right-approaching top-exit"/>
    </vehicle>
    <vehicle id="L0-HDV-24" type="L0-HDV" depart="16.80">
        <route edges="right-approaching left-exit"/>
    </vehicle>
    <vehicle id="L0-HDV-25" type="L0-HDV" depart="17.50">
        <route edges="top-approaching bottom-exit"/>
    </vehicle>
    <vehicle id="L0-HDV-26" type="L0-HDV" depart="18.20">
        <route edges="left-long-approaching top-exit"/>
    </vehicle>
    <vehicle id="L0-HDV-27" type="L0-HDV" depart="18.90">
        <route edges="bottom-approaching left-exit"/>
    </vehicle>
    <vehicle id="L0-HDV-28" type="L0-HDV" depart="19.60">
        <route edges="bottom-approaching right-exit"/>
    </vehicle>
    <vehicle id="L0-HDV-29" type="L0-HDV" depart="20.30">
        <route edges="top-approaching right-exit"/>
    </vehicle>
    <vehicle id="L0-HDV-30" type="L0-HDV" depart="21.00">
        <route edges="top-approaching left-exit"/>
    </vehicle>
    <vehicle id="L0-HDV-32" type="L0-HDV" depart="22.40">
        <route edges="right-approaching left-exit"/>
    </vehicle>
    <vehicle id="L0-HDV-34" type="L0-HDV" depart="23.80">
        <route edges="left-long-approaching right-exit"/>
    </vehicle>
    <vehicle id="L0-HDV-35" type="L0-HDV" depart="24.50">
        <route edges="bottom-approaching right-exit"/>
    </vehicle>
    <vehicle id="L0-HDV-36" type="L0-HDV" depart="25.20">
        <route edges="right-approaching top-exit"/>
    </vehicle>
    <vehicle id="L0-HDV-37" type="L0-HDV" depart="25.90">
        <route edges="top-approaching left-exit"/>
    </vehicle>
    <vehicle id="L0-HDV-38" type="L0-HDV" depart="26.60">
        <route edges="left-long-approaching right-exit"/>
    </vehicle>
    <vehicle id="L0-HDV-39" type="L0-HDV" depart="27.30">
        <route edges="bottom-approaching left-exit"/>
    </vehicle>
    <vehicle id="L0-HDV-41" type="L0-HDV" depart="28.70">
        <route edges="bottom-approaching top-exit"/>
    </vehicle>
    <vehicle id="L0-HDV-43" type="L0-HDV" depart="30.10">
        <route edges="left-long-approaching top-exit"/>
    </vehicle>
    <vehicle id="L0-HDV-44" type="L0-HDV" depart="30.80">
        <route edges="bottom-approaching left-exit"/>
    </vehicle>
    <vehicle id="L0-HDV-45" type="L0-HDV" depart="31.50">
        <route edges="right-approaching top-exit"/>
    </vehicle>
    <vehicle id="L0-HDV-48" type="L0-HDV" depart="33.60">
        <route edges="left-long-approaching top-exit"/>
    </vehicle>
    <vehicle id="L0-HDV-49" type="L0-HDV" depart="34.30">
        <route edges="top-approaching bottom-exit"/>
    </vehicle>
    <vehicle id="L0-HDV-51" type="L0-HDV" depart="35.70">
        <route edges="bottom-approaching left-exit"/>
    </vehicle>
    <vehicle id="L0-HDV-52" type="L0-HDV" depart="36.40">
        <route edges="right-approaching left-exit"/>
    </vehicle>
    <vehicle id="L0-HDV-53" type="L0-HDV" depart="37.10">
        <route edges="bottom-approaching left-exit"/>
    </vehicle>
    <vehicle id="L0-HDV-54" type="L0-HDV" depart="37.80">
        <route edges="left-long-approaching right-exit"/>
    </vehicle>
    <vehicle id="L0-HDV-55" type="L0-HDV" depart="38.50">
        <route edges="top-approaching right-exit"/>
    </vehicle>
    <vehicle id="L0-HDV-57" type="L0-HDV" depart="39.90">
        <route edges="right-approaching bottom-exit"/>
    </vehicle>
    <vehicle id="L0-HDV-61" type="L0-HDV" depart="42.70">
        <route edges="bottom-approaching right-exit"/>
    </vehicle>
    <vehicle id="L0-HDV-64" type="L0-HDV" depart="44.80">
        <route edges="left-long-approaching bottom-exit"/>
    </vehicle>
    <vehicle id="L0-HDV-66" type="L0-HDV" depart="46.20">
        <route edges="bottom-approaching left-exit"/>
    </vehicle>
    <vehicle id="L0-HDV-67" type="L0-HDV" depart="46.90">
        <route edges="bottom-approaching top-exit"/>
    </vehicle>
    <vehicle id="L0-HDV-68" type="L0-HDV" depart="47.60">
        <route edges="right-approaching bottom-exit"/>
    </vehicle>
    <vehicle id="L0-HDV-70" type="L0-HDV" depart="49.00">
        <route edges="left-long-approaching bottom-exit"/>
    </vehicle>
    <vehicle id="L0-HDV-75" type="L0-HDV" depart="52.50">
        <route edges="top-approaching bottom-exit"/>
    </vehicle>
    <vehicle id="L0-HDV-76" type="L0-HDV" depart="53.20">
        <route edges="bottom-approaching top-exit"/>
    </vehicle>
    <vehicle id="L0-HDV-77" type="L0-HDV" depart="53.90">
        <route edges="right-approaching bottom-exit"/>
    </vehicle>
    <vehicle id="L0-HDV-78" type="L0-HDV" depart="54.60">
        <route edges="right-approaching bottom-exit"/>
    </vehicle>
    <vehicle id="L0-HDV-79" type="L0-HDV" depart="55.30">
        <route edges="right-approaching top-exit"/>
    </vehicle>
    <vehicle id="L0-HDV-80" type="L0-HDV" depart="56.00">
        <route edges="top-approaching right-exit"/>
    </vehicle>
    <vehicle id="L0-HDV-82" type="L0-HDV" depart="57.40">
        <route edges="bottom-approaching top-exit"/>
    </vehicle>
    <vehicle id="L0-HDV-83" type="L0-HDV" depart="58.10">
        <route edges="right-approaching top-exit"/>
    </vehicle>
    <vehicle id="L0-HDV-84" type="L0-HDV" depart="58.80">
        <route edges="left-long-approaching bottom-exit"/>
    </vehicle>
    <vehicle id="L0-HDV-87" type="L0-HDV" depart="60.90">
        <route edges="top-approaching right-exit"/>
    </vehicle>
    <vehicle id="L0-HDV-88" type="L0-HDV" depart="61.60">
        <route edges="bottom-approaching right-exit"/>
    </vehicle>
    <vehicle id="L0-HDV-89" type="L0-HDV" depart="62.30">
        <route edges="left-long-approaching bottom-exit"/>
    </vehicle>
    <vehicle id="L0-HDV-90" type="L0-HDV" depart="63.00">
        <route edges="bottom-approaching left-exit"/>
    </vehicle>
    <vehicle id="L0-HDV-91" type="L0-HDV" depart="63.70">
        <route edges="left-long-approaching right-exit"/>
    </vehicle>
    <vehicle id="L0-HDV-92" type="L0-HDV" depart="64.40">
        <route edges="top-approaching left-exit"/>
    </vehicle>
    <vehicle id="L0-HDV-94" type="L0-HDV" depart="65.80">
        <route edges="top-approaching left-exit"/>
    </vehicle>
    <vehicle id="L0-HDV-97" type="L0-HDV" depart="67.90">
        <route edges="right-approaching top-exit"/>
    </vehicle>
    <vehicle id="L0-HDV-98" type="L0-HDV" depart="68.60">
        <route edges="top-approaching left-exit"/>
    </vehicle>
    <vehicle id="L0-HDV-99" type="L0-HDV" depart="69.30">
        <route edges="right-approaching top-exit"/>
    </vehicle>
    <vehicle id="L0-HDV-100" type="L0-HDV" depart="70.00">
        <route edges="bottom-approaching right-exit"/>
    </vehicle>
    <vehicle id="L0-HDV-102" type="L0-HDV" depart="71.40">
        <route edges="top-approaching left-exit"/>
    </vehicle>
    <vehicle id="L0-HDV-103" type="L0-HDV" depart="72.10">
        <route edges="bottom-approaching top-exit"/>
    </vehicle>
    <vehicle id="L0-HDV-104" type="L0-HDV" depart="72.80">
        <route edges="left-long-approaching top-exit"/>
    </vehicle>
    <vehicle id="L0-HDV-105" type="L0-HDV" depart="73.50">
        <route edges="top-approaching left-exit"/>
    </vehicle>
    <vehicle id="L0-HDV-106" type="L0-HDV" depart="74.20">
        <route edges="left-long-approaching top-exit"/>
    </vehicle>
    <vehicle id="L0-HDV-107" type="L0-HDV" depart="74.90">
        <route edges="right-approaching bottom-exit"/>
    </vehicle>
    <vehicle id="L0-HDV-110" type="L0-HDV" depart="77.00">
        <route edges="bottom-approaching top-exit"/>
    </vehicle>
    <vehicle id="L0-HDV-111" type="L0-HDV" depart="77.70">
        <route edges="top-approaching right-exit"/>
    </vehicle>
    <vehicle id="L0-HDV-112" type="L0-HDV" depart="78.40">
        <route edges="left-long-approaching right-exit"/>
    </vehicle>
    <vehicle id="L0-HDV-114" type="L0-HDV" depart="79.80">
        <route edges="top-approaching right-exit"/>
    </vehicle>
    <vehicle id="L0-HDV-115" type="L0-HDV" depart="80.50">
        <route edges="right-approaching top-exit"/>
    </vehicle>
    <vehicle id="L0-HDV-116" type="L0-HDV" depart="81.20">
        <route edges="left-long-approaching top-exit"/>
    </vehicle>
    <vehicle id="L0-HDV-117" type="L0-HDV" depart="81.90">
        <route edges="top-approaching bottom-exit"/>
    </vehicle>
    <vehicle id="L0-HDV-119" type="L0-HDV" depart="83.30">
        <route edges="bottom-approaching right-exit"/>
    </vehicle>
    <vehicle id="L0-HDV-121" type="L0-HDV" depart="84.70">
        <route edges="bottom-approaching top-exit"/>
    </vehicle>
    <vehicle id="L0-HDV-123" type="L0-HDV" depart="86.10">
        <route edges="right-approaching top-exit"/>
    </vehicle>
    <vehicle id="L0-HDV-124" type="L0-HDV" depart="86.80">
        <route edges="left-long-approaching top-exit"/>
    </vehicle>
    <vehicle id="L0-HDV-126" type="L0-HDV" depart="88.20">
        <route edges="right-approaching bottom-exit"/>
    </vehicle>
    <vehicle id="L0-HDV-127" type="L0-HDV" depart="88.90">
        <route edges="left-long-approaching bottom-exit"/>
    </vehicle>
    <vehicle id="L0-HDV-128" type="L0-HDV" depart="89.60">
        <route edges="bottom-approaching top-exit"/>
    </vehicle>
    <vehicle id="L0-HDV-129" type="L0-HDV" depart="90.30">
        <route edges="bottom-approaching left-exit"/>
    </vehicle>
    <vehicle id="L0-HDV-131" type="L0-HDV" depart="91.70">
        <route edges="left-long-approaching right-exit"/>
    </vehicle>
    <vehicle id="L0-HDV-132" type="L0-HDV" depart="92.40">
        <route edges="right-approaching top-exit"/>
    </vehicle>
    <vehicle id="L0-HDV-133" type="L0-HDV" depart="93.10">
        <route edges="bottom-approaching right-exit"/>
    </vehicle>
    <vehicle id="L0-HDV-134" type="L0-HDV" depart="93.80">
        <route edges="bottom-approaching left-exit"/>
    </vehicle>
    <vehicle id="L0-HDV-135" type="L0-HDV" depart="94.50">
        <route edges="top-approaching right-exit"/>
    </vehicle>
    <vehicle id="L0-HDV-136" type="L0-HDV" depart="95.20">
        <route edges="right-approaching top-exit"/>
    </vehicle>
    <vehicle id="L0-HDV-137" type="L0-HDV" depart="95.90">
        <route edges="top-approaching left-exit"/>
    </vehicle>
    <vehicle id="L0-HDV-140" type="L0-HDV" depart="98.00">
        <route edges="left-long-approaching right-exit"/>
    </vehicle>
    <vehicle id="L0-HDV-141" type="L0-HDV" depart="98.70">
        <route edges="left-long-approaching top-exit"/>
    </vehicle>
    <vehicle id="L0-HDV-142" type="L0-HDV" depart="99.40">
        <route edges="right-approaching top-exit"/>
    </vehicle>
    <vehicle id="L0-HDV-143" type="L0-HDV" depart="100.10">
        <route edges="top-approaching left-exit"/>
    </vehicle>
    <vehicle id="L0-HDV-144" type="L0-HDV" depart="100.80">
        <route edges="right-approaching top-exit"/>
    </vehicle>
    <vehicle id="L0-HDV-145" type="L0-HDV" depart="101.50">
        <route edges="top-approaching bottom-exit"/>
    </vehicle>
    <vehicle id="L0-HDV-146" type="L0-HDV" depart="102.20">
        <route edges="bottom-approaching left-exit"/>
    </vehicle>
    <vehicle id="L0-HDV-148" type="L0-HDV" depart="103.60">
        <route edges="bottom-approaching right-exit"/>
    </vehicle>
    <vehicle id="L0-HDV-150" type="L0-HDV" depart="105.00">
        <route edges="bottom-approaching right-exit"/>
    </vehicle>
    <vehicle id="L0-HDV-151" type="L0-HDV" depart="105.70">
        <route edges="right-approaching bottom-exit"/>
    </vehicle>
    <vehicle id="L0-HDV-153" type="L0-HDV" depart="107.10">
        <route edges="bottom-approaching top-exit"/>
    </vehicle>
    <vehicle id="L0-HDV-156" type="L0-HDV" depart="109.20">
        <route edges="bottom-approaching left-exit"/>
    </vehicle>
    <vehicle id="L0-HDV-157" type="L0-HDV" depart="109.90">
        <route edges="right-approaching left-exit"/>
    </vehicle>
    <vehicle id="L0-HDV-158" type="L0-HDV" depart="110.60">
        <route edges="bottom-approaching left-exit"/>
    </vehicle>
    <vehicle id="L0-HDV-159" type="L0-HDV" depart="111.30">
        <route edges="right-approaching bottom-exit"/>
    </vehicle>
    <vehicle id="L0-HDV-160" type="L0-HDV" depart="112.00">
        <route edges="right-approaching left-exit"/>
    </vehicle>
    <vehicle id="L0-HDV-161" type="L0-HDV" depart="112.70">
        <route edges="bottom-approaching left-exit"/>
    </vehicle>
    <vehicle id="L0-HDV-163" type="L0-HDV" depart="114.10">
        <route edges="bottom-approaching top-exit"/>
    </vehicle>
    <vehicle id="L0-HDV-165" type="L0-HDV" depart="115.50">
        <route edges="bottom-approaching left-exit"/>
    </vehicle>
    <vehicle id="L0-HDV-166" type="L0-HDV" depart="116.20">
        <route edges="bottom-approaching top-exit"/>
    </vehicle>
    <vehicle id="L0-HDV-167" type="L0-HDV" depart="116.90">
        <route edges="left-long-approaching bottom-exit"/>
    </vehicle>
    <vehicle id="L0-HDV-168" type="L0-HDV" depart="117.60">
        <route edges="left-long-approaching top-exit"/>
    </vehicle>
    <vehicle id="L0-HDV-169" type="L0-HDV" depart="118.30">
        <route edges="top-approaching left-exit"/>
    </vehicle>
    <vehicle id="L0-HDV-170" type="L0-HDV" depart="119.00">
        <route edges="bottom-approaching top-exit"/>
    </vehicle>
    <vehicle id="L0-HDV-173" type="L0-HDV" depart="121.10">
        <route edges="right-approaching left-exit"/>
    </vehicle>
    <vehicle id="L0-HDV-174" type="L0-HDV" depart="121.80">
        <route edges="bottom-approaching top-exit"/>
    </vehicle>
    <vehicle id="L0-HDV-175" type="L0-HDV" depart="122.50">
        <route edges="right-approaching top-exit"/>
    </vehicle>
    <vehicle id="L0-HDV-176" type="L0-HDV" depart="123.20">
        <route edges="bottom-approaching top-exit"/>
    </vehicle>
    <vehicle id="L0-HDV-177" type="L0-HDV" depart="123.90">
        <route edges="bottom-approaching top-exit"/>
    </vehicle>
    <vehicle id="L0-HDV-179" type="L0-HDV" depart="125.30">
        <route edges="right-approaching top-exit"/>
    </vehicle>
    <vehicle id="L0-HDV-180" type="L0-HDV" depart="126.00">
        <route edges="left-long-approaching bottom-exit"/>
    </vehicle>
    <vehicle id="L0-HDV-181" type="L0-HDV" depart="126.70">
        <route edges="right-approaching bottom-exit"/>
    </vehicle>
    <vehicle id="L0-HDV-185" type="L0-HDV" depart="129.50">
        <route edges="top-approaching left-exit"/>
    </vehicle>
    <vehicle id="L0-HDV-186" type="L0-HDV" depart="130.20">
        <route edges="right-approaching bottom-exit"/>
    </vehicle>
    <vehicle id="L0-HDV-187" type="L0-HDV" depart="130.90">
        <route edges="left-long-approaching bottom-exit"/>
    </vehicle>
    <vehicle id="L0-HDV-188" type="L0-HDV" depart="131.60">
        <route edges="left-long-approaching bottom-exit"/>
    </vehicle>
    <vehicle id="L0-HDV-190" type="L0-HDV" depart="133.00">
        <route edges="bottom-approaching left-exit"/>
    </vehicle>
    <vehicle id="L0-HDV-191" type="L0-HDV" depart="133.70">
        <route edges="top-approaching bottom-exit"/>
    </vehicle>
    <vehicle id="L0-HDV-192" type="L0-HDV" depart="134.40">
        <route edges="top-approaching left-exit"/>
    </vehicle>
    <vehicle id="L0-HDV-193" type="L0-HDV" depart="135.10">
        <route edges="left-long-approaching top-exit"/>
    </vehicle>
    <vehicle id="L0-HDV-194" type="L0-HDV" depart="135.80">
        <route edges="left-long-approaching right-exit"/>
    </vehicle>
    <vehicle id="L0-HDV-195" type="L0-HDV" depart="136.50">
        <route edges="right-approaching top-exit"/>
    </vehicle>
    <vehicle id="L0-HDV-196" type="L0-HDV" depart="137.20">
        <route edges="left-long-approaching top-exit"/>
    </vehicle>
    <vehicle id="L0-HDV-200" type="L0-HDV" depart="140.00">
        <route edges="bottom-approaching right-exit"/>
    </vehicle>
    <vehicle id="L0-HDV-201" type="L0-HDV" depart="140.70">
        <route edges="left-long-approaching bottom-exit"/>
    </vehicle>
    <vehicle id="L0-HDV-202" type="L0-HDV" depart="141.40">
        <route edges="bottom-approaching top-exit"/>
    </vehicle>
    <vehicle id="L0-HDV-203" type="L0-HDV" depart="142.10">
        <route edges="top-approaching right-exit"/>
    </vehicle>
    <vehicle id="L0-HDV-204" type="L0-HDV" depart="142.80">
        <route edges="left-long-approaching bottom-exit"/>
    </vehicle>
    <vehicle id="L0-HDV-206" type="L0-HDV" depart="144.20">
        <route edges="bottom-approaching left-exit"/>
    </vehicle>
    <vehicle id="L0-HDV-207" type="L0-HDV" depart="144.90">
        <route edges="left-long-approaching top-exit"/>
    </vehicle>
    <vehicle id="L0-HDV-208" type="L0-HDV" depart="145.60">
        <route edges="top-approaching right-exit"/>
    </vehicle>
    <vehicle id="L0-HDV-209" type="L0-HDV" depart="146.30">
        <route edges="bottom-approaching top-exit"/>
    </vehicle>
    <vehicle id="L0-HDV-211" type="L0-HDV" depart="147.70">
        <route edges="bottom-approaching left-exit"/>
    </vehicle>
    <vehicle id="L0-HDV-212" type="L0-HDV" depart="148.40">
        <route edges="left-long-approaching right-exit"/>
    </vehicle>
    <vehicle id="L0-HDV-213" type="L0-HDV" depart="149.10">
        <route edges="bottom-approaching right-exit"/>
    </vehicle>
    <vehicle id="L0-HDV-214" type="L0-HDV" depart="149.80">
        <route edges="bottom-approaching left-exit"/>
    </vehicle>
    <vehicle id="L0-HDV-215" type="L0-HDV" depart="150.50">
        <route edges="bottom-approaching left-exit"/>
    </vehicle>
    <vehicle id="L0-HDV-217" type="L0-HDV" depart="151.90">
        <route edges="left-long-approaching bottom-exit"/>
    </vehicle>
    <vehicle id="L0-HDV-219" type="L0-HDV" depart="153.30">
        <route edges="top-approaching right-exit"/>
    </vehicle>
    <vehicle id="L0-HDV-220" type="L0-HDV" depart="154.00">
        <route edges="right-approaching top-exit"/>
    </vehicle>
    <vehicle id="L0-HDV-222" type="L0-HDV" depart="155.40">
        <route edges="top-approaching bottom-exit"/>
    </vehicle>
    <vehicle id="L0-HDV-224" type="L0-HDV" depart="156.80">
        <route edges="bottom-approaching top-exit"/>
    </vehicle>
    <vehicle id="L0-HDV-225" type="L0-HDV" depart="157.50">
        <route edges="top-approaching right-exit"/>
    </vehicle>
    <vehicle id="L0-HDV-226" type="L0-HDV" depart="158.20">
        <route edges="right-approaching top-exit"/>
    </vehicle>
    <vehicle id="L0-HDV-227" type="L0-HDV" depart="158.90">
        <route edges="bottom-approaching right-exit"/>
    </vehicle>
    <vehicle id="L0-HDV-228" type="L0-HDV" depart="159.60">
        <route edges="right-approaching top-exit"/>
    </vehicle>
    <vehicle id="L0-HDV-230" type="L0-HDV" depart="161.00">
        <route edges="right-approaching top-exit"/>
    </vehicle>
    <vehicle id="L0-HDV-233" type="L0-HDV" depart="163.10">
        <route edges="bottom-approaching left-exit"/>
    </vehicle>
    <vehicle id="L0-HDV-234" type="L0-HDV" depart="163.80">
        <route edges="bottom-approaching top-exit"/>
    </vehicle>
    <vehicle id="L0-HDV-237" type="L0-HDV" depart="165.90">
        <route edges="left-long-approaching bottom-exit"/>
    </vehicle>
    <vehicle id="L0-HDV-238" type="L0-HDV" depart="166.60">
        <route edges="top-approaching right-exit"/>
    </vehicle>
    <vehicle id="L0-HDV-240" type="L0-HDV" depart="168.00">
        <route edges="right-approaching bottom-exit"/>
    </vehicle>
    <vehicle id="L0-HDV-241" type="L0-HDV" depart="168.70">
        <route edges="right-approaching left-exit"/>
    </vehicle>
    <vehicle id="L0-HDV-242" type="L0-HDV" depart="169.40">
        <route edges="bottom-approaching left-exit"/>
    </vehicle>
    <vehicle id="L0-HDV-243" type="L0-HDV" depart="170.10">
        <route edges="right-approaching bottom-exit"/>
    </vehicle>
    <vehicle id="L0-HDV-244" type="L0-HDV" depart="170.80">
        <route edges="right-approaching top-exit"/>
    </vehicle>
    <vehicle id="L0-HDV-246" type="L0-HDV" depart="172.20">
        <route edges="left-long-approaching right-exit"/>
    </vehicle>
    <vehicle id="L0-HDV-247" type="L0-HDV" depart="172.90">
        <route edges="top-approaching right-exit"/>
    </vehicle>
    <vehicle id="L0-HDV-248" type="L0-HDV" depart="173.60">
        <route edges="right-approaching bottom-exit"/>
    </vehicle>
    <vehicle id="L0-HDV-249" type="L0-HDV" depart="174.30">
        <route edges="bottom-approaching left-exit"/>
    </vehicle>
    <vehicle id="L0-HDV-250" type="L0-HDV" depart="175.00">
        <route edges="right-approaching left-exit"/>
    </vehicle>
    <vehicle id="L0-HDV-251" type="L0-HDV" depart="175.70">
        <route edges="right-approaching bottom-exit"/>
    </vehicle>
    <vehicle id="L0-HDV-252" type="L0-HDV" depart="176.40">
        <route edges="bottom-approaching left-exit"/>
    </vehicle>
    <vehicle id="L0-HDV-254" type="L0-HDV" depart="177.80">
        <route edges="right-approaching left-exit"/>
    </vehicle>
    <vehicle id="L0-HDV-255" type="L0-HDV" depart="178.50">
        <route edges="right-approaching left-exit"/>
    </vehicle>
    <vehicle id="L0-HDV-256" type="L0-HDV" depart="179.20">
        <route edges="left-long-approaching bottom-exit"/>
    </vehicle>
    <vehicle id="L0-HDV-257" type="L0-HDV" depart="179.90">
        <route edges="top-approaching bottom-exit"/>
    </vehicle>
    <vehicle id="L0-HDV-259" type="L0-HDV" depart="181.30">
        <route edges="bottom-approaching left-exit"/>
    </vehicle>
    <vehicle id="L0-HDV-262" type="L0-HDV" depart="183.40">
        <route edges="bottom-approaching top-exit"/>
    </vehicle>
    <vehicle id="L0-HDV-263" type="L0-HDV" depart="184.10">
        <route edges="bottom-approaching right-exit"/>
    </vehicle>
    <vehicle id="L0-HDV-264" type="L0-HDV" depart="184.80">
        <route edges="bottom-approaching right-exit"/>
    </vehicle>
    <vehicle id="L0-HDV-265" type="L0-HDV" depart="185.50">
        <route edges="top-approaching bottom-exit"/>
    </vehicle>
    <vehicle id="L0-HDV-266" type="L0-HDV" depart="186.20">
        <route edges="top-approaching right-exit"/>
    </vehicle>
    <vehicle id="L0-HDV-267" type="L0-HDV" depart="186.90">
        <route edges="top-approaching right-exit"/>
    </vehicle>
    <vehicle id="L0-HDV-268" type="L0-HDV" depart="187.60">
        <route edges="bottom-approaching top-exit"/>
    </vehicle>
    <vehicle id="L0-HDV-269" type="L0-HDV" depart="188.30">
        <route edges="left-long-approaching bottom-exit"/>
    </vehicle>
    <vehicle id="L0-HDV-270" type="L0-HDV" depart="189.00">
        <route edges="bottom-approaching left-exit"/>
    </vehicle>
    <vehicle id="L0-HDV-272" type="L0-HDV" depart="190.40">
        <route edges="bottom-approaching left-exit"/>
    </vehicle>
    <vehicle id="L0-HDV-273" type="L0-HDV" depart="191.10">
        <route edges="left-long-approaching top-exit"/>
    </vehicle>
    <vehicle id="L0-HDV-274" type="L0-HDV" depart="191.80">
        <route edges="bottom-approaching top-exit"/>
    </vehicle>
    <vehicle id="L0-HDV-275" type="L0-HDV" depart="192.50">
        <route edges="top-approaching bottom-exit"/>
    </vehicle>
    <vehicle id="L0-HDV-276" type="L0-HDV" depart="193.20">
        <route edges="top-approaching right-exit"/>
    </vehicle>
    <vehicle id="L0-HDV-277" type="L0-HDV" depart="193.90">
        <route edges="top-approaching left-exit"/>
    </vehicle>
    <vehicle id="L0-HDV-279" type="L0-HDV" depart="195.30">
        <route edges="top-approaching right-exit"/>
    </vehicle>
    <vehicle id="L0-HDV-281" type="L0-HDV" depart="196.70">
        <route edges="left-long-approaching bottom-exit"/>
    </vehicle>
    <vehicle id="L0-HDV-282" type="L0-HDV" depart="197.40">
        <route edges="bottom-approaching top-exit"/>
    </vehicle>
    <vehicle id="L0-HDV-283" type="L0-HDV" depart="198.10">
        <route edges="left-long-approaching top-exit"/>
    </vehicle>
    <vehicle id="L0-HDV-284" type="L0-HDV" depart="198.80">
        <route edges="bottom-approaching left-exit"/>
    </vehicle>
    <vehicle id="L0-HDV-285" type="L0-HDV" depart="199.50">
        <route edges="right-approaching bottom-exit"/>
    </vehicle>
    <vehicle id="L0-HDV-286" type="L0-HDV" depart="200.20">
        <route edges="left-long-approaching top-exit"/>
    </vehicle>
    <vehicle id="L0-HDV-288" type="L0-HDV" depart="201.60">
        <route edges="right-approaching top-exit"/>
    </vehicle>
    <vehicle id="L0-HDV-289" type="L0-HDV" depart="202.30">
        <route edges="top-approaching right-exit"/>
    </vehicle>
    <vehicle id="L0-HDV-290" type="L0-HDV" depart="203.00">
        <route edges="right-approaching bottom-exit"/>
    </vehicle>
    <vehicle id="L0-HDV-291" type="L0-HDV" depart="203.70">
        <route edges="right-approaching left-exit"/>
    </vehicle>
    <vehicle id="L0-HDV-292" type="L0-HDV" depart="204.40">
        <route edges="top-approaching right-exit"/>
    </vehicle>
    <vehicle id="L0-HDV-293" type="L0-HDV" depart="205.10">
        <route edges="left-long-approaching bottom-exit"/>
    </vehicle>
    <vehicle id="L0-HDV-294" type="L0-HDV" depart="205.80">
        <route edges="top-approaching bottom-exit"/>
    </vehicle>
    <vehicle id="L0-HDV-296" type="L0-HDV" depart="207.20">
        <route edges="left-long-approaching right-exit"/>
    </vehicle>
    <vehicle id="L0-HDV-297" type="L0-HDV" depart="207.90">
        <route edges="top-approaching left-exit"/>
    </vehicle>
    <vehicle id="L0-HDV-298" type="L0-HDV" depart="208.60">
        <route edges="right-approaching left-exit"/>
    </vehicle>
    <vehicle id="L0-HDV-299" type="L0-HDV" depart="209.30">
        <route edges="right-approaching left-exit"/>
    </vehicle>
    <vehicle id="L0-HDV-301" type="L0-HDV" depart="210.70">
        <route edges="bottom-approaching top-exit"/>
    </vehicle>
    <vehicle id="L0-HDV-302" type="L0-HDV" depart="211.40">
        <route edges="left-long-approaching bottom-exit"/>
    </vehicle>
    <vehicle id="L0-HDV-304" type="L0-HDV" depart="212.80">
        <route edges="left-long-approaching bottom-exit"/>
    </vehicle>
    <vehicle id="L0-HDV-306" type="L0-HDV" depart="214.20">
        <route edges="left-long-approaching bottom-exit"/>
    </vehicle>
    <vehicle id="L0-HDV-307" type="L0-HDV" depart="214.90">
        <route edges="bottom-approaching left-exit"/>
    </vehicle>
    <vehicle id="L0-HDV-308" type="L0-HDV" depart="215.60">
        <route edges="right-approaching top-exit"/>
    </vehicle>