<?xml version="1.0" encoding="UTF-8"?>

<!-- generated on 02/18/21 20:43:22 by Eclipse SUMO duarouter Version 1.8.0
<configuration xmlns:xsi="http://www.w3.org/2001/XMLSchema-instance" xsi:noNamespaceSchemaLocation="http://sumo.dlr.de/xsd/duarouterConfiguration.xsd">

    <input>
        <net-file value="RoadworksIntersection.net.xml"/>
        <route-files value="trips.trips.xml"/>
    </input>

    <output>
        <output-file value="Route-Files/L0-HDV-Route.rou.xml"/>
        <alternatives-output value="Route-Files/L0-HDV-Route.rou.alt.xml"/>
    </output>

    <time>
        <begin value="0"/>
        <end value="100"/>
    </time>

    <report>
        <no-warnings value="true"/>
        <ignore-errors value="true"/>
        <no-step-log value="true"/>
    </report>

</configuration>
-->

<routes xmlns:xsi="http://www.w3.org/2001/XMLSchema-instance" xsi:noNamespaceSchemaLocation="http://sumo.dlr.de/xsd/routes_file.xsd">
    <vehicle id="L0-HDV-0" type="L0-HDV" depart="0.00">
        <route edges="right-approaching bottom-exit"/>
    </vehicle>
    <vehicle id="L0-HDV-1" type="L0-HDV" depart="1.00">
        <route edges="left-long-approaching left-short-approaching bottom-exit"/>
    </vehicle>
    <vehicle id="L0-HDV-3" type="L0-HDV" depart="3.00">
        <route edges="top-approaching bottom-exit"/>
    </vehicle>
    <vehicle id="L0-HDV-4" type="L0-HDV" depart="4.00">
        <route edges="left-long-approaching left-short-approaching bottom-exit"/>
    </vehicle>
    <vehicle id="L0-HDV-8" type="L0-HDV" depart="8.00">
        <route edges="bottom-approaching right-exit"/>
    </vehicle>
    <vehicle id="L0-HDV-9" type="L0-HDV" depart="9.00">
        <route edges="top-approaching bottom-exit"/>
    </vehicle>
    <vehicle id="L0-HDV-10" type="L0-HDV" depart="10.00">
        <route edges="top-approaching right-exit"/>
    </vehicle>
    <vehicle id="L0-HDV-11" type="L0-HDV" depart="11.00">
        <route edges="left-long-approaching left-short-approaching bottom-exit"/>
    </vehicle>
    <vehicle id="L0-HDV-12" type="L0-HDV" depart="12.00">
        <route edges="top-approaching closed-lane remerging-lane left-exit"/>
    </vehicle>
    <vehicle id="L0-HDV-14" type="L0-HDV" depart="14.00">
        <route edges="top-approaching right-exit"/>
    </vehicle>
    <vehicle id="L0-HDV-15" type="L0-HDV" depart="15.00">
        <route edges="top-approaching right-exit"/>
    </vehicle>
    <vehicle id="L0-HDV-16" type="L0-HDV" depart="16.00">
        <route edges="right-approaching top-exit"/>
    </vehicle>
    <vehicle id="L0-HDV-17" type="L0-HDV" depart="17.00">
        <route edges="left-long-approaching left-short-approaching right-exit"/>
    </vehicle>
    <vehicle id="L0-HDV-18" type="L0-HDV" depart="18.00">
        <route edges="top-approaching right-exit"/>
    </vehicle>
    <vehicle id="L0-HDV-19" type="L0-HDV" depart="19.00">
        <route edges="top-approaching right-exit"/>
    </vehicle>
    <vehicle id="L0-HDV-20" type="L0-HDV" depart="20.00">
        <route edges="right-approaching bottom-exit"/>
    </vehicle>
    <vehicle id="L0-HDV-21" type="L0-HDV" depart="21.00">
        <route edges="bottom-approaching closed-lane remerging-lane left-exit"/>
    </vehicle>
    <vehicle id="L0-HDV-23" type="L0-HDV" depart="23.00">
        <route edges="bottom-approaching closed-lane remerging-lane left-exit"/>
    </vehicle>
    <vehicle id="L0-HDV-24" type="L0-HDV" depart="24.00">
        <route edges="right-approaching closed-lane remerging-lane left-exit"/>
    </vehicle>
    <vehicle id="L0-HDV-25" type="L0-HDV" depart="25.00">
        <route edges="left-long-approaching left-short-approaching bottom-exit"/>
    </vehicle>
    <vehicle id="L0-HDV-26" type="L0-HDV" depart="26.00">
        <route edges="left-long-approaching left-short-approaching top-exit"/>
    </vehicle>
    <vehicle id="L0-HDV-28" type="L0-HDV" depart="28.00">
        <route edges="bottom-approaching right-exit"/>
    </vehicle>
    <vehicle id="L0-HDV-29" type="L0-HDV" depart="29.00">
        <route edges="bottom-approaching closed-lane remerging-lane left-exit"/>
    </vehicle>
    <vehicle id="L0-HDV-30" type="L0-HDV" depart="30.00">
        <route edges="top-approaching right-exit"/>
    </vehicle>
    <vehicle id="L0-HDV-35" type="L0-HDV" depart="35.00">
        <route edges="bottom-approaching top-exit"/>
    </vehicle>
    <vehicle id="L0-HDV-36" type="L0-HDV" depart="36.00">
        <route edges="top-approaching closed-lane remerging-lane left-exit"/>
    </vehicle>
    <vehicle id="L0-HDV-37" type="L0-HDV" depart="37.00">
        <route edges="right-approaching closed-lane remerging-lane left-exit"/>
    </vehicle>
    <vehicle id="L0-HDV-38" type="L0-HDV" depart="38.00">
        <route edges="top-approaching closed-lane remerging-lane left-exit"/>
    </vehicle>
    <vehicle id="L0-HDV-40" type="L0-HDV" depart="40.00">
        <route edges="right-approaching closed-lane remerging-lane left-exit"/>
    </vehicle>
    <vehicle id="L0-HDV-41" type="L0-HDV" depart="41.00">
        <route edges="right-approaching top-exit"/>
    </vehicle>
    <vehicle id="L0-HDV-42" type="L0-HDV" depart="42.00">
        <route edges="left-long-approaching left-short-approaching bottom-exit"/>
    </vehicle>
    <vehicle id="L0-HDV-45" type="L0-HDV" depart="45.00">
        <route edges="bottom-approaching right-exit"/>
    </vehicle>
    <vehicle id="L0-HDV-46" type="L0-HDV" depart="46.00">
        <route edges="top-approaching closed-lane remerging-lane left-exit"/>
    </vehicle>
    <vehicle id="L0-HDV-47" type="L0-HDV" depart="47.00">
        <route edges="bottom-approaching closed-lane remerging-lane left-exit"/>
    </vehicle>
    <vehicle id="L0-HDV-48" type="L0-HDV" depart="48.00">
        <route edges="top-approaching right-exit"/>
    </vehicle>
    <vehicle id="L0-HDV-50" type="L0-HDV" depart="50.00">
        <route edges="bottom-approaching right-exit"/>
    </vehicle>
    <vehicle id="L0-HDV-52" type="L0-HDV" depart="52.00">
        <route edges="left-long-approaching left-short-approaching right-exit"/>
    </vehicle>
    <vehicle id="L0-HDV-53" type="L0-HDV" depart="53.00">
        <route edges="bottom-approaching closed-lane remerging-lane left-exit"/>
    </vehicle>
    <vehicle id="L0-HDV-54" type="L0-HDV" depart="54.00">
        <route edges="left-long-approaching left-short-approaching top-exit"/>
    </vehicle>
    <vehicle id="L0-HDV-55" type="L0-HDV" depart="55.00">
        <route edges="top-approaching closed-lane remerging-lane left-exit"/>
    </vehicle>
    <vehicle id="L0-HDV-56" type="L0-HDV" depart="56.00">
        <route edges="left-short-approaching bottom-exit"/>
    </vehicle>
    <vehicle id="L0-HDV-58" type="L0-HDV" depart="58.00">
        <route edges="left-long-approaching left-short-approaching right-exit"/>
    </vehicle>
    <vehicle id="L0-HDV-59" type="L0-HDV" depart="59.00">
        <route edges="right-approaching bottom-exit"/>
    </vehicle>
    <vehicle id="L0-HDV-60" type="L0-HDV" depart="60.00">
        <route edges="top-approaching right-exit"/>
    </vehicle>
    <vehicle id="L0-HDV-61" type="L0-HDV" depart="61.00">
        <route edges="top-approaching right-exit"/>
    </vehicle>
    <vehicle id="L0-HDV-62" type="L0-HDV" depart="62.00">
        <route edges="bottom-approaching closed-lane remerging-lane left-exit"/>
    </vehicle>
    <vehicle id="L0-HDV-63" type="L0-HDV" depart="63.00">
        <route edges="bottom-approaching top-exit"/>
    </vehicle>
    <vehicle id="L0-HDV-65" type="L0-HDV" depart="65.00">
        <route edges="left-long-approaching left-short-approaching bottom-exit"/>
    </vehicle>
    <vehicle id="L0-HDV-67" type="L0-HDV" depart="67.00">
        <route edges="bottom-approaching closed-lane remerging-lane left-exit"/>
    </vehicle>
    <vehicle id="L0-HDV-68" type="L0-HDV" depart="68.00">
        <route edges="bottom-approaching right-exit"/>
    </vehicle>
    <vehicle id="L0-HDV-69" type="L0-HDV" depart="69.00">
        <route edges="top-approaching bottom-exit"/>
    </vehicle>
    <vehicle id="L0-HDV-70" type="L0-HDV" depart="70.00">
        <route edges="left-long-approaching left-short-approaching right-exit"/>
    </vehicle>
    <vehicle id="L0-HDV-71" type="L0-HDV" depart="71.00">
        <route edges="left-long-approaching left-short-approaching top-exit"/>
    </vehicle>
    <vehicle id="L0-HDV-72" type="L0-HDV" depart="72.00">
        <route edges="left-long-approaching left-short-approaching bottom-exit"/>
    </vehicle>
    <vehicle id="L0-HDV-74" type="L0-HDV" depart="74.00">
        <route edges="bottom-approaching closed-lane remerging-lane left-exit"/>
    </vehicle>
    <vehicle id="L0-HDV-75" type="L0-HDV" depart="75.00">
        <route edges="top-approaching right-exit"/>
    </vehicle>
    <vehicle id="L0-HDV-78" type="L0-HDV" depart="78.00">
        <route edges="left-long-approaching left-short-approaching right-exit"/>
    </vehicle>
    <vehicle id="L0-HDV-80" type="L0-HDV" depart="80.00">
        <route edges="bottom-approaching right-exit"/>
    </vehicle>
    <vehicle id="L0-HDV-81" type="L0-HDV" depart="81.00">
        <route edges="bottom-approaching top-exit"/>
    </vehicle>
    <vehicle id="L0-HDV-82" type="L0-HDV" depart="82.00">
        <route edges="top-approaching bottom-exit"/>
    </vehicle>
    <vehicle id="L0-HDV-83" type="L0-HDV" depart="83.00">
        <route edges="bottom-approaching right-exit"/>
    </vehicle>
    <vehicle id="L0-HDV-85" type="L0-HDV" depart="85.00">
        <route edges="top-approaching right-exit"/>
    </vehicle>
    <vehicle id="L0-HDV-86" type="L0-HDV" depart="86.00">
        <route edges="left-long-approaching left-short-approaching top-exit"/>
    </vehicle>
    <vehicle id="L0-HDV-87" type="L0-HDV" depart="87.00">
        <route edges="top-approaching bottom-exit"/>
    </vehicle>
    <vehicle id="L0-HDV-88" type="L0-HDV" depart="88.00">
        <route edges="bottom-approaching closed-lane remerging-lane left-exit"/>
    </vehicle>
    <vehicle id="L0-HDV-91" type="L0-HDV" depart="91.00">
        <route edges="top-approaching bottom-exit"/>
    </vehicle>
    <vehicle id="L0-HDV-93" type="L0-HDV" depart="93.00">
        <route edges="top-approaching closed-lane"/>
    </vehicle>
    <vehicle id="L0-HDV-94" type="L0-HDV" depart="94.00">
        <route edges="bottom-approaching closed-lane remerging-lane left-exit"/>
    </vehicle>
    <vehicle id="L0-HDV-97" type="L0-HDV" depart="97.00">
        <route edges="left-long-approaching left-short-approaching top-exit"/>
    </vehicle>
    <vehicle id="L0-HDV-98" type="L0-HDV" depart="98.00">
        <route edges="right-approaching bottom-exit"/>
    </vehicle>
</routes>
