<?xml version="1.0" ?><!-- generated on 02/24/21 13:38:31 by Eclipse SUMO duarouter Version 1.8.0
<configuration xmlns:xsi="http://www.w3.org/2001/XMLSchema-instance" xsi:noNamespaceSchemaLocation="http://sumo.dlr.de/xsd/duarouterConfiguration.xsd">

    <input>
        <net-file value="Roadworks/RoadworksIntersection.net.xml"/>
        <route-files value="trips.trips.xml"/>
    </input>

    <output>
        <output-file value="Roadworks/Route-Files/L2-Non-CV-Route.rou.xml"/>
        <alternatives-output value="Roadworks/Route-Files/L2-Non-CV-Route.rou.alt.xml"/>
    </output>

    <time>
        <begin value="0"/>
        <end value="50"/>
    </time>

    <report>
        <no-warnings value="true"/>
        <ignore-errors value="true"/>
        <no-step-log value="true"/>
    </report>

</configuration>
--><routes xmlns:xsi="http://www.w3.org/2001/XMLSchema-instance" xsi:noNamespaceSchemaLocation="http://sumo.dlr.de/xsd/routes_file.xsd">
    <vehicle id="L2-Non-CV-0" type="L2-Non-CV" depart="0.00">
        <route edges="left-long-approaching preparation left-short-approaching bottom-exit"/>
    </vehicle>
    <vehicle id="L2-Non-CV-1" type="L2-Non-CV" depart="1.00">
        <route edges="right-approaching bottom-exit"/>
    </vehicle>
    <vehicle id="L2-Non-CV-2" type="L2-Non-CV" depart="2.00">
        <route edges="right-approaching closed-lane remerging-lane left-exit"/>
    </vehicle>
    <vehicle id="L2-Non-CV-4" type="L2-Non-CV" depart="4.00">
        <route edges="bottom-approaching closed-lane remerging-lane left-exit"/>
    </vehicle>
    <vehicle id="L2-Non-CV-6" type="L2-Non-CV-Left" depart="6.00">
        <route edges="left-long-approaching preparation"/>
    </vehicle>
    <vehicle id="L2-Non-CV-8" type="L2-Non-CV" depart="8.00">
        <route edges="right-approaching top-exit"/>
    </vehicle>
    <vehicle id="L2-Non-CV-9" type="L2-Non-CV" depart="9.00">
        <route edges="right-approaching closed-lane remerging-lane left-exit"/>
    </vehicle>
    <vehicle id="L2-Non-CV-10" type="L2-Non-CV" depart="10.00">
        <route edges="top-approaching bottom-exit"/>
    </vehicle>
    <vehicle id="L2-Non-CV-11" type="L2-Non-CV" depart="11.00">
        <route edges="top-approaching closed-lane remerging-lane left-exit"/>
    </vehicle>
    <vehicle id="L2-Non-CV-13" type="L2-Non-CV-Left" depart="13.00">
        <route edges="left-long-approaching preparation"/>
    </vehicle>
    <vehicle id="L2-Non-CV-14" type="L2-Non-CV" depart="14.00">
        <route edges="bottom-approaching right-exit"/>
    </vehicle>
    <vehicle id="L2-Non-CV-15" type="L2-Non-CV" depart="15.00">
        <route edges="right-approaching closed-lane remerging-lane left-exit"/>
    </vehicle>
    <vehicle id="L2-Non-CV-16" type="L2-Non-CV" depart="16.00">
        <route edges="right-approaching bottom-exit"/>
    </vehicle>
    <vehicle id="L2-Non-CV-18" type="L2-Non-CV" depart="18.00">
        <route edges="right-approaching closed-lane remerging-lane left-exit"/>
    </vehicle>
    <vehicle id="L2-Non-CV-19" type="L2-Non-CV" depart="19.00">
        <route edges="left-long-approaching preparation left-short-approaching right-exit"/>
    </vehicle>
    <vehicle id="L2-Non-CV-21" type="L2-Non-CV" depart="21.00">
        <route edges="top-approaching right-exit"/>
    </vehicle>
    <vehicle id="L2-Non-CV-22" type="L2-Non-CV" depart="22.00">
        <route edges="bottom-approaching right-exit"/>
    </vehicle>
    <vehicle id="L2-Non-CV-23" type="L2-Non-CV" depart="23.00">
        <route edges="right-approaching top-exit"/>
    </vehicle>
    <vehicle id="L2-Non-CV-24" type="L2-Non-CV" depart="24.00">
        <route edges="right-approaching closed-lane remerging-lane left-exit"/>
    </vehicle>
    <vehicle id="L2-Non-CV-25" type="L2-Non-CV" depart="25.00">
        <route edges="top-approaching bottom-exit"/>
    </vehicle>
    <vehicle id="L2-Non-CV-26" type="L2-Non-CV-Left" depart="26.00">
        <route edges="left-long-approaching preparation"/>
    </vehicle>
    <vehicle id="L2-Non-CV-27" type="L2-Non-CV" depart="27.00">
        <route edges="bottom-approaching closed-lane remerging-lane left-exit"/>
    </vehicle>
    <vehicle id="L2-Non-CV-28" type="L2-Non-CV" depart="28.00">
        <route edges="bottom-approaching right-exit"/>
    </vehicle>
    <vehicle id="L2-Non-CV-29" type="L2-Non-CV" depart="29.00">
        <route edges="top-approaching right-exit"/>
    </vehicle>
    <vehicle id="L2-Non-CV-30" type="L2-Non-CV" depart="30.00">
        <route edges="top-approaching closed-lane remerging-lane left-exit"/>
    </vehicle>
    <vehicle id="L2-Non-CV-32" type="L2-Non-CV" depart="32.00">
        <route edges="right-approaching closed-lane remerging-lane left-exit"/>
    </vehicle>
    <vehicle id="L2-Non-CV-34" type="L2-Non-CV" depart="34.00">
        <route edges="left-long-approaching preparation left-short-approaching right-exit"/>
    </vehicle>
    <vehicle id="L2-Non-CV-35" type="L2-Non-CV" depart="35.00">
        <route edges="bottom-approaching right-exit"/>
    </vehicle>
    <vehicle id="L2-Non-CV-36" type="L2-Non-CV" depart="36.00">
        <route edges="right-approaching top-exit"/>
    </vehicle>
    <vehicle id="L2-Non-CV-37" type="L2-Non-CV" depart="37.00">
        <route edges="top-approaching closed-lane remerging-lane left-exit"/>
    </vehicle>
    <vehicle id="L2-Non-CV-38" type="L2-Non-CV" depart="38.00">
        <route edges="left-long-approaching preparation left-short-approaching right-exit"/>
    </vehicle>
    <vehicle id="L2-Non-CV-39" type="L2-Non-CV" depart="39.00">
        <route edges="bottom-approaching closed-lane remerging-lane left-exit"/>
    </vehicle>
    <vehicle id="L2-Non-CV-41" type="L2-Non-CV" depart="41.00">
        <route edges="bottom-approaching top-exit"/>
    </vehicle>
    <vehicle id="L2-Non-CV-42" type="L2-Non-CV" depart="42.00">
        <route edges="bottom-approaching closed-lane remerging-lane left-exit"/>
    </vehicle>
    <vehicle id="L2-Non-CV-43" type="L2-Non-CV-Left" depart="43.00">
        <route edges="left-long-approaching preparation"/>
    </vehicle>
    <vehicle id="L2-Non-CV-44" type="L2-Non-CV" depart="44.00">
        <route edges="bottom-approaching closed-lane remerging-lane left-exit"/>
    </vehicle>
    <vehicle id="L2-Non-CV-45" type="L2-Non-CV" depart="45.00">
        <route edges="right-approaching top-exit"/>
    </vehicle>
    <vehicle id="L2-Non-CV-48" type="L2-Non-CV-Left" depart="48.00">
        <route edges="left-long-approaching preparation"/>
    </vehicle>
    <vehicle id="L2-Non-CV-49" type="L2-Non-CV" depart="49.00">
        <route edges="top-approaching bottom-exit"/>
    </vehicle>
</routes>