<?xml version="1.0" encoding="UTF-8"?>

<!-- generated on 02/25/21 21:54:11 by Eclipse SUMO duarouter Version 1.8.0
<configuration xmlns:xsi="http://www.w3.org/2001/XMLSchema-instance" xsi:noNamespaceSchemaLocation="http://sumo.dlr.de/xsd/duarouterConfiguration.xsd">

    <input>
        <net-file value="Roadworks/RoadworksIntersection.net.xml"/>
        <route-files value="trips.trips.xml"/>
    </input>

    <output>
        <output-file value="Roadworks/Route-Files/L2-Non-CV-Route.rou.xml"/>
        <alternatives-output value="Roadworks/Route-Files/L2-Non-CV-Route.rou.alt.xml"/>
    </output>

    <time>
        <begin value="0"/>
        <end value="50"/>
    </time>

    <report>
        <no-warnings value="true"/>
        <ignore-errors value="true"/>
        <no-step-log value="true"/>
    </report>

</configuration>
-->

<routes xmlns:xsi="http://www.w3.org/2001/XMLSchema-instance" xsi:noNamespaceSchemaLocation="http://sumo.dlr.de/xsd/routes_file.xsd">
    <vehicle id="L2-Non-CV-0" type="L2-Non-CV" depart="0.00">
        <route edges="bottom-approaching top-exit"/>
    </vehicle>
    <vehicle id="L2-Non-CV-1" type="L2-Non-CV" depart="1.86">
        <route edges="bottom-approaching right-exit"/>
    </vehicle>
    <vehicle id="L2-Non-CV-2" type="L2-Non-CV" depart="3.72">
        <route edges="bottom-approaching closed-lane remerging-lane left-exit"/>
    </vehicle>
    <vehicle id="L2-Non-CV-3" type="L2-Non-CV" depart="5.58">
        <route edges="top-approaching bottom-exit"/>
    </vehicle>
    <vehicle id="L2-Non-CV-4" type="L2-Non-CV" depart="7.44">
        <route edges="right-approaching closed-lane remerging-lane left-exit"/>
    </vehicle>
    <vehicle id="L2-Non-CV-5" type="L2-Non-CV" depart="9.30">
        <route edges="left-long-approaching preparation left-short-approaching"/>
    </vehicle>
    <vehicle id="L2-Non-CV-6" type="L2-Non-CV" depart="11.16">
        <route edges="bottom-approaching top-exit"/>
    </vehicle>
    <vehicle id="L2-Non-CV-8" type="L2-Non-CV" depart="14.88">
        <route edges="bottom-approaching closed-lane remerging-lane left-exit"/>
    </vehicle>
    <vehicle id="L2-Non-CV-9" type="L2-Non-CV" depart="16.74">
        <route edges="left-long-approaching preparation left-short-approaching top-exit"/>
    </vehicle>
    <vehicle id="L2-Non-CV-10" type="L2-Non-CV" depart="18.60">
        <route edges="left-long-approaching preparation left-short-approaching bottom-exit"/>
    </vehicle>
    <vehicle id="L2-Non-CV-11" type="L2-Non-CV" depart="20.46">
        <route edges="left-long-approaching preparation left-short-approaching top-exit"/>
    </vehicle>
    <vehicle id="L2-Non-CV-12" type="L2-Non-CV" depart="22.32">
        <route edges="bottom-approaching right-exit"/>
    </vehicle>
    <vehicle id="L2-Non-CV-13" type="L2-Non-CV" depart="24.18">
        <route edges="left-long-approaching preparation left-short-approaching right-exit"/>
    </vehicle>
    <vehicle id="L2-Non-CV-14" type="L2-Non-CV" depart="26.04">
        <route edges="left-long-approaching preparation left-short-approaching right-exit"/>
    </vehicle>
    <vehicle id="L2-Non-CV-15" type="L2-Non-CV" depart="27.90">
        <route edges="preparation left-short-approaching right-exit"/>
    </vehicle>
    <vehicle id="L2-Non-CV-16" type="L2-Non-CV" depart="29.76">
        <route edges="top-approaching right-exit"/>
    </vehicle>
    <vehicle id="L2-Non-CV-18" type="L2-Non-CV" depart="33.48">
        <route edges="top-approaching closed-lane remerging-lane left-exit"/>
    </vehicle>
    <vehicle id="L2-Non-CV-19" type="L2-Non-CV" depart="35.34">
        <route edges="bottom-approaching top-exit"/>
    </vehicle>
    <vehicle id="L2-Non-CV-21" type="L2-Non-CV" depart="39.06">
        <route edges="top-approaching closed-lane remerging-lane left-exit"/>
    </vehicle>
    <vehicle id="L2-Non-CV-22" type="L2-Non-CV" depart="40.92">
        <route edges="left-long-approaching preparation left-short-approaching top-exit"/>
    </vehicle>
    <vehicle id="L2-Non-CV-23" type="L2-Non-CV" depart="42.78">
        <route edges="bottom-approaching top-exit"/>
    </vehicle>
    <vehicle id="L2-Non-CV-24" type="L2-Non-CV" depart="44.64">
        <route edges="bottom-approaching right-exit"/>
    </vehicle>
    <vehicle id="L2-Non-CV-25" type="L2-Non-CV" depart="46.50">
        <route edges="right-approaching top-exit"/>
    </vehicle>
</routes>
