<?xml version="1.0" ?><!-- generated on 02/21/21 17:50:22 by Eclipse SUMO duarouter Version 1.8.0
<configuration xmlns:xsi="http://www.w3.org/2001/XMLSchema-instance" xsi:noNamespaceSchemaLocation="http://sumo.dlr.de/xsd/duarouterConfiguration.xsd">

    <input>
        <net-file value="Roadworks/RoadworksIntersection.net.xml"/>
        <route-files value="trips.trips.xml"/>
    </input>

    <output>
        <output-file value="Roadworks/Route-Files/L4-Non-CV-Route.rou.xml"/>
        <alternatives-output value="Roadworks/Route-Files/L4-Non-CV-Route.rou.alt.xml"/>
    </output>

    <time>
        <begin value="0"/>
        <end value="50"/>
    </time>

    <report>
        <no-warnings value="true"/>
        <ignore-errors value="true"/>
        <no-step-log value="true"/>
    </report>

</configuration>
--><routes xmlns:xsi="http://www.w3.org/2001/XMLSchema-instance" xsi:noNamespaceSchemaLocation="http://sumo.dlr.de/xsd/routes_file.xsd">
    <vehicle id="L4-Non-CV-1" type="L4-Non-CV" depart="1.00">
        <route edges="bottom-approaching top-exit"/>
    </vehicle>
    <vehicle id="L4-Non-CV-3" type="L4-Non-CV" depart="3.00">
        <route edges="top-approaching bottom-exit"/>
    </vehicle>
    <vehicle id="L4-Non-CV-5" type="L4-Non-CV" depart="5.00">
        <route edges="bottom-approaching closed-lane remerging-lane left-exit"/>
    </vehicle>
    <vehicle id="L4-Non-CV-6" type="L4-Non-CV" depart="6.00">
        <route edges="right-approaching closed-lane remerging-lane left-exit"/>
    </vehicle>
    <vehicle id="L4-Non-CV-7" type="L4-Non-CV" depart="7.00">
        <route edges="right-approaching bottom-exit"/>
    </vehicle>
    <vehicle id="L4-Non-CV-9" type="L4-Non-CV" depart="9.00">
        <route edges="preparation left-short-approaching top-exit"/>
    </vehicle>
    <vehicle id="L4-Non-CV-10" type="L4-Non-CV" depart="10.00">
        <route edges="right-approaching top-exit"/>
    </vehicle>
    <vehicle id="L4-Non-CV-11" type="L4-Non-CV" depart="11.00">
        <route edges="left-long-approaching preparation left-short-approaching right-exit"/>
    </vehicle>
    <vehicle id="L4-Non-CV-12" type="L4-Non-CV" depart="12.00">
        <route edges="bottom-approaching closed-lane remerging-lane left-exit"/>
    </vehicle>
    <vehicle id="L4-Non-CV-14" type="L4-Non-CV" depart="14.00">
        <route edges="left-long-approaching preparation left-short-approaching bottom-exit"/>
    </vehicle>
    <vehicle id="L4-Non-CV-15" type="L4-Non-CV" depart="15.00">
        <route edges="left-long-approaching preparation left-short-approaching bottom-exit"/>
    </vehicle>
    <vehicle id="L4-Non-CV-16" type="L4-Non-CV-Left" depart="16.00">
        <route edges="left-long-approaching preparation left-short-approaching top-exit"/>
    </vehicle>
    <vehicle id="L4-Non-CV-17" type="L4-Non-CV" depart="17.00">
        <route edges="bottom-approaching top-exit"/>
    </vehicle>
    <vehicle id="L4-Non-CV-18" type="L4-Non-CV" depart="18.00">
        <route edges="top-approaching bottom-exit"/>
    </vehicle>
    <vehicle id="L4-Non-CV-20" type="L4-Non-CV" depart="20.00">
        <route edges="bottom-approaching closed-lane remerging-lane left-exit"/>
    </vehicle>
    <vehicle id="L4-Non-CV-21" type="L4-Non-CV" depart="21.00">
        <route edges="top-approaching bottom-exit"/>
    </vehicle>
    <vehicle id="L4-Non-CV-22" type="L4-Non-CV" depart="22.00">
        <route edges="right-approaching bottom-exit"/>
    </vehicle>
    <vehicle id="L4-Non-CV-23" type="L4-Non-CV" depart="23.00">
        <route edges="right-approaching top-exit"/>
    </vehicle>
    <vehicle id="L4-Non-CV-25" type="L4-Non-CV" depart="25.00">
        <route edges="bottom-approaching right-exit"/>
    </vehicle>
    <vehicle id="L4-Non-CV-27" type="L4-Non-CV" depart="27.00">
        <route edges="preparation left-short-approaching top-exit"/>
    </vehicle>
    <vehicle id="L4-Non-CV-29" type="L4-Non-CV" depart="29.00">
        <route edges="right-approaching bottom-exit"/>
    </vehicle>
    <vehicle id="L4-Non-CV-30" type="L4-Non-CV" depart="30.00">
        <route edges="right-approaching bottom-exit"/>
    </vehicle>
    <vehicle id="L4-Non-CV-31" type="L4-Non-CV" depart="31.00">
        <route edges="right-approaching top-exit"/>
    </vehicle>
    <vehicle id="L4-Non-CV-32" type="L4-Non-CV" depart="32.00">
        <route edges="bottom-approaching right-exit"/>
    </vehicle>
    <vehicle id="L4-Non-CV-33" type="L4-Non-CV" depart="33.00">
        <route edges="right-approaching bottom-exit"/>
    </vehicle>
    <vehicle id="L4-Non-CV-34" type="L4-Non-CV-Left" depart="34.00">
        <route edges="left-long-approaching preparation left-short-approaching top-exit"/>
    </vehicle>
    <vehicle id="L4-Non-CV-35" type="L4-Non-CV" depart="35.00">
        <route edges="top-approaching bottom-exit"/>
    </vehicle>
    <vehicle id="L4-Non-CV-36" type="L4-Non-CV" depart="36.00">
        <route edges="right-approaching top-exit"/>
    </vehicle>
    <vehicle id="L4-Non-CV-37" type="L4-Non-CV" depart="37.00">
        <route edges="bottom-approaching right-exit"/>
    </vehicle>
    <vehicle id="L4-Non-CV-38" type="L4-Non-CV" depart="38.00">
        <route edges="bottom-approaching closed-lane remerging-lane left-exit"/>
    </vehicle>
    <vehicle id="L4-Non-CV-40" type="L4-Non-CV" depart="40.00">
        <route edges="top-approaching bottom-exit"/>
    </vehicle>
    <vehicle id="L4-Non-CV-41" type="L4-Non-CV-Left" depart="41.00">
        <route edges="left-long-approaching preparation left-short-approaching top-exit"/>
    </vehicle>
    <vehicle id="L4-Non-CV-42" type="L4-Non-CV" depart="42.00">
        <route edges="right-approaching closed-lane remerging-lane left-exit"/>
    </vehicle>
    <vehicle id="L4-Non-CV-43" type="L4-Non-CV-Left" depart="43.00">
        <route edges="left-long-approaching preparation left-short-approaching top-exit"/>
    </vehicle>
    <vehicle id="L4-Non-CV-44" type="L4-Non-CV" depart="44.00">
        <route edges="right-approaching bottom-exit"/>
    </vehicle>
    <vehicle id="L4-Non-CV-45" type="L4-Non-CV" depart="45.00">
        <route edges="top-approaching closed-lane remerging-lane left-exit"/>
    </vehicle>
    <vehicle id="L4-Non-CV-46" type="L4-Non-CV" depart="46.00">
        <route edges="left-long-approaching preparation left-short-approaching bottom-exit"/>
    </vehicle>
    <vehicle id="L4-Non-CV-48" type="L4-Non-CV" depart="48.00">
        <route edges="bottom-approaching right-exit"/>
    </vehicle>
    <vehicle id="L4-Non-CV-49" type="L4-Non-CV" depart="49.00">
        <route edges="bottom-approaching top-exit"/>
    </vehicle>
</routes>