<?xml version="1.0" encoding="UTF-8"?>

<!-- generated on 02/20/21 20:21:44 by Eclipse SUMO duarouter Version 1.8.0
<configuration xmlns:xsi="http://www.w3.org/2001/XMLSchema-instance" xsi:noNamespaceSchemaLocation="http://sumo.dlr.de/xsd/duarouterConfiguration.xsd">

    <input>
        <net-file value="RoadworksIntersection.net.xml"/>
        <route-files value="trips.trips.xml"/>
    </input>

    <output>
        <output-file value="Route-Files/L4-Non-CV-Route.rou.xml"/>
        <alternatives-output value="Route-Files/L4-Non-CV-Route.rou.alt.xml"/>
    </output>

    <time>
        <begin value="0"/>
        <end value="50"/>
    </time>

    <report>
        <no-warnings value="true"/>
        <ignore-errors value="true"/>
        <no-step-log value="true"/>
    </report>

</configuration>
-->

<routes xmlns:xsi="http://www.w3.org/2001/XMLSchema-instance" xsi:noNamespaceSchemaLocation="http://sumo.dlr.de/xsd/routes_file.xsd">
    <vehicle id="L4-Non-CV-0" type="L4-Non-CV" depart="0.00">
        <route edges="bottom-approaching right-exit"/>
    </vehicle>
    <vehicle id="L4-Non-CV-1" type="L4-Non-CV" depart="1.00">
        <route edges="left-long-approaching left-short-approaching right-exit"/>
    </vehicle>
    <vehicle id="L4-Non-CV-2" type="L4-Non-CV" depart="2.00">
        <route edges="right-approaching bottom-exit"/>
    </vehicle>
    <vehicle id="L4-Non-CV-3" type="L4-Non-CV" depart="3.00">
        <route edges="bottom-approaching top-exit"/>
    </vehicle>
    <vehicle id="L4-Non-CV-4" type="L4-Non-CV" depart="4.00">
        <route edges="left-long-approaching left-short-approaching bottom-exit"/>
    </vehicle>
    <vehicle id="L4-Non-CV-5" type="L4-Non-CV" depart="5.00">
        <route edges="top-approaching closed-lane remerging-lane left-exit"/>
    </vehicle>
    <vehicle id="L4-Non-CV-6" type="L4-Non-CV" depart="6.00">
        <route edges="top-approaching closed-lane remerging-lane left-exit"/>
    </vehicle>
    <vehicle id="L4-Non-CV-7" type="L4-Non-CV" depart="7.00">
        <route edges="right-approaching bottom-exit"/>
    </vehicle>
    <vehicle id="L4-Non-CV-8" type="L4-Non-CV" depart="8.00">
        <route edges="right-approaching top-exit"/>
    </vehicle>
    <vehicle id="L4-Non-CV-10" type="L4-Non-CV" depart="10.00">
        <route edges="right-approaching bottom-exit"/>
    </vehicle>
    <vehicle id="L4-Non-CV-12" type="L4-Non-CV" depart="12.00">
        <route edges="left-long-approaching left-short-approaching bottom-exit"/>
    </vehicle>
    <vehicle id="L4-Non-CV-13" type="L4-Non-CV" depart="13.00">
        <route edges="top-approaching closed-lane remerging-lane left-exit"/>
    </vehicle>
    <vehicle id="L4-Non-CV-14" type="L4-Non-CV" depart="14.00">
        <route edges="right-approaching top-exit"/>
    </vehicle>
    <vehicle id="L4-Non-CV-15" type="L4-Non-CV" depart="15.00">
        <route edges="right-approaching top-exit"/>
    </vehicle>
    <vehicle id="L4-Non-CV-16" type="L4-Non-CV" depart="16.00">
        <route edges="left-long-approaching left-short-approaching top-exit"/>
    </vehicle>
    <vehicle id="L4-Non-CV-17" type="L4-Non-CV" depart="17.00">
        <route edges="left-long-approaching left-short-approaching top-exit"/>
    </vehicle>
    <vehicle id="L4-Non-CV-18" type="L4-Non-CV" depart="18.00">
        <route edges="top-approaching bottom-exit"/>
    </vehicle>
    <vehicle id="L4-Non-CV-20" type="L4-Non-CV" depart="20.00">
        <route edges="top-approaching closed-lane remerging-lane left-exit"/>
    </vehicle>
    <vehicle id="L4-Non-CV-21" type="L4-Non-CV" depart="21.00">
        <route edges="right-approaching closed-lane remerging-lane left-exit"/>
    </vehicle>
    <vehicle id="L4-Non-CV-23" type="L4-Non-CV" depart="23.00">
        <route edges="left-long-approaching left-short-approaching right-exit"/>
    </vehicle>
    <vehicle id="L4-Non-CV-24" type="L4-Non-CV" depart="24.00">
        <route edges="right-approaching top-exit"/>
    </vehicle>
    <vehicle id="L4-Non-CV-25" type="L4-Non-CV" depart="25.00">
        <route edges="right-approaching top-exit"/>
    </vehicle>
    <vehicle id="L4-Non-CV-27" type="L4-Non-CV" depart="27.00">
        <route edges="right-approaching bottom-exit"/>
    </vehicle>
    <vehicle id="L4-Non-CV-29" type="L4-Non-CV" depart="29.00">
        <route edges="top-approaching right-exit"/>
    </vehicle>
    <vehicle id="L4-Non-CV-30" type="L4-Non-CV" depart="30.00">
        <route edges="right-approaching bottom-exit"/>
    </vehicle>
    <vehicle id="L4-Non-CV-31" type="L4-Non-CV" depart="31.00">
        <route edges="top-approaching right-exit"/>
    </vehicle>
    <vehicle id="L4-Non-CV-32" type="L4-Non-CV" depart="32.00">
        <route edges="left-long-approaching left-short-approaching bottom-exit"/>
    </vehicle>
    <vehicle id="L4-Non-CV-34" type="L4-Non-CV" depart="34.00">
        <route edges="bottom-approaching top-exit"/>
    </vehicle>
    <vehicle id="L4-Non-CV-35" type="L4-Non-CV" depart="35.00">
        <route edges="left-long-approaching left-short-approaching bottom-exit"/>
    </vehicle>
    <vehicle id="L4-Non-CV-36" type="L4-Non-CV" depart="36.00">
        <route edges="left-long-approaching left-short-approaching top-exit"/>
    </vehicle>
    <vehicle id="L4-Non-CV-37" type="L4-Non-CV" depart="37.00">
        <route edges="top-approaching bottom-exit"/>
    </vehicle>
    <vehicle id="L4-Non-CV-38" type="L4-Non-CV" depart="38.00">
        <route edges="right-approaching bottom-exit"/>
    </vehicle>
    <vehicle id="L4-Non-CV-39" type="L4-Non-CV" depart="39.00">
        <route edges="right-approaching closed-lane remerging-lane left-exit"/>
    </vehicle>
    <vehicle id="L4-Non-CV-41" type="L4-Non-CV" depart="41.00">
        <route edges="left-short-approaching top-exit"/>
    </vehicle>
    <vehicle id="L4-Non-CV-42" type="L4-Non-CV" depart="42.00">
        <route edges="left-long-approaching left-short-approaching bottom-exit"/>
    </vehicle>
    <vehicle id="L4-Non-CV-43" type="L4-Non-CV" depart="43.00">
        <route edges="right-approaching bottom-exit"/>
    </vehicle>
    <vehicle id="L4-Non-CV-44" type="L4-Non-CV" depart="44.00">
        <route edges="bottom-approaching closed-lane remerging-lane left-exit"/>
    </vehicle>
    <vehicle id="L4-Non-CV-45" type="L4-Non-CV" depart="45.00">
        <route edges="right-approaching bottom-exit"/>
    </vehicle>
    <vehicle id="L4-Non-CV-46" type="L4-Non-CV" depart="46.00">
        <route edges="bottom-approaching top-exit"/>
    </vehicle>
    <vehicle id="L4-Non-CV-47" type="L4-Non-CV" depart="47.00">
        <route edges="left-long-approaching left-short-approaching top-exit"/>
    </vehicle>
    <vehicle id="L4-Non-CV-48" type="L4-Non-CV" depart="48.00">
        <route edges="top-approaching closed-lane remerging-lane left-exit"/>
    </vehicle>
</routes>
