<?xml version="1.0" encoding="UTF-8"?>

<!-- generated on 03/31/21 22:43:06 by Eclipse SUMO GUI Version 1.8.0
<configuration xmlns:xsi="http://www.w3.org/2001/XMLSchema-instance" xsi:noNamespaceSchemaLocation="http://sumo.dlr.de/xsd/sumoConfiguration.xsd">

    <input>
        <net-file value="Collision\BaselinePenetration3\../CollisionIntersection.net.xml"/>
        <route-files value="Collision\BaselinePenetration3\../CrashedVehicleRoutes.rou.xml,Collision\BaselinePenetration3\Route-Files/L4-CV-Route.rou.xml,Collision\BaselinePenetration3\Route-Files/L4-AV-Route.rou.xml,Collision\BaselinePenetration3\Route-Files/L2-CV-Route.rou.xml,Collision\BaselinePenetration3\Route-Files/L2-AV-Route.rou.xml,Collision\BaselinePenetration3\Route-Files/L0-HDV-Route.rou.xml"/>
        <additional-files value="Collision\BaselinePenetration3\../Additional-Files/Collision-Detectors.add.xml,Collision\BaselinePenetration3\../Additional-Files/Collision-TMS-Rerouters.add.xml,Collision\BaselinePenetration3\PreparingVehicleModels/Vehicle-Models/L4-CV.add.xml,Collision\BaselinePenetration3\PreparingVehicleModels/Vehicle-Models/L4-CV-Left.add.xml,Collision\BaselinePenetration3\PreparingVehicleModels/Vehicle-Models/L4-CV-Right.add.xml,Collision\BaselinePenetration3\PreparingVehicleModels/Vehicle-Models/L4-AV.add.xml,Collision\BaselinePenetration3\PreparingVehicleModels/Vehicle-Models/L4-AV-Left.add.xml,Collision\BaselinePenetration3\PreparingVehicleModels/Vehicle-Models/L4-AV-Right.add.xml,Collision\BaselinePenetration3\PreparingVehicleModels/Vehicle-Models/L2-CV.add.xml,Collision\BaselinePenetration3\PreparingVehicleModels/Vehicle-Models/L2-CV-Left.add.xml,Collision\BaselinePenetration3\PreparingVehicleModels/Vehicle-Models/L2-CV-Right.add.xml,Collision\BaselinePenetration3\PreparingVehicleModels/Vehicle-Models/L2-AV.add.xml,Collision\BaselinePenetration3\PreparingVehicleModels/Vehicle-Models/L2-AV-Left.add.xml,Collision\BaselinePenetration3\PreparingVehicleModels/Vehicle-Models/L2-AV-Right.add.xml,Collision\BaselinePenetration3\PreparingVehicleModels/Vehicle-Models/L0-HDV.add.xml,Collision\BaselinePenetration3\PreparingVehicleModels/Vehicle-Models/L0-HDV-Left.add.xml,Collision\BaselinePenetration3\PreparingVehicleModels/Vehicle-Models/L0-HDV-Straight.add.xml,Collision\BaselinePenetration3\../Additional-Files/Collision-Traffic-lights.add.xml,Collision\BaselinePenetration3\../Additional-Files/Collision-Traffic-Signs.add.xml"/>
    </input>

    <output>
        <tripinfo-output value="Collision\BaselinePenetration3\Output-Files\TripInfo.xml"/>
    </output>

    <time>
        <begin value="0"/>
        <step-length value="0.1"/>
    </time>

    <processing>
        <ignore-route-errors value="true"/>
        <waiting-time-memory value="300"/>
        <default.action-step-length value="0.1"/>
    </processing>

    <report>
        <no-warnings value="true"/>
    </report>

    <emissions>
        <device.emissions.probability value="1"/>
    </emissions>

    <traci_server>
        <remote-port value="56746"/>
    </traci_server>

    <gui_only>
        <start value="true"/>
        <tracker-interval value="0.1"/>
    </gui_only>

</configuration>
-->

<tripinfos xmlns:xsi="http://www.w3.org/2001/XMLSchema-instance" xsi:noNamespaceSchemaLocation="http://sumo.dlr.de/xsd/tripinfo_file.xsd">
    <tripinfo id="L2-CV-1" depart="126.00" departLane="left-long-approaching_0" departPos="5.10" departSpeed="0.00" departDelay="0.00" arrival="189.90" arrivalLane="bottom-exit_0" arrivalPos="486.40" arrivalSpeed="20.01" duration="63.90" routeLength="979.53" waitingTime="0.00" waitingCount="0" stopTime="0.00" timeLoss="14.08" rerouteNo="0" devices="tripinfo_L2-CV-1 emissions_L2-CV-1 ssm_L2-CV-1 toc_L2-CV-1 driverstateL2-CV-1" vType="L2-CV-Right-0" speedFactor="1.20" vaporized="">
        <emissions CO_abs="2724.245731" CO2_abs="260839.200191" HC_abs="17.268551" PMx_abs="4.074778" NOx_abs="96.866211" fuel_abs="112.123742" electricity_abs="0"/>
    </tripinfo>
    <tripinfo id="L2-AV-3" depart="138.00" departLane="top-approaching_0" departPos="5.10" departSpeed="0.00" departDelay="0.00" arrival="236.70" arrivalLane="bottom-exit_0" arrivalPos="486.40" arrivalSpeed="17.62" duration="98.70" routeLength="994.90" waitingTime="26.60" waitingCount="1" stopTime="0.00" timeLoss="42.09" rerouteNo="0" devices="tripinfo_L2-AV-3 emissions_L2-AV-3 ssm_L2-AV-3 toc_L2-AV-3 driverstateL2-AV-3" vType="L2-AV-30" speedFactor="1.06" vaporized="">
        <emissions CO_abs="7209.849435" CO2_abs="324250.359341" HC_abs="37.839595" PMx_abs="5.372961" NOx_abs="125.003192" fuel_abs="139.383871" electricity_abs="0"/>
    </tripinfo>
    <tripinfo id="L0-HDV-0" depart="123.30" departLane="bottom-approaching_0" departPos="5.10" departSpeed="0.00" departDelay="3.30" arrival="238.40" arrivalLane="top-exit_1" arrivalPos="486.40" arrivalSpeed="17.19" duration="115.10" routeLength="994.90" waitingTime="38.60" waitingCount="1" stopTime="0.00" timeLoss="57.72" rerouteNo="0" devices="tripinfo_L0-HDV-0 emissions_L0-HDV-0 ssm_L0-HDV-0" vType="L0-HDV-32" speedFactor="1.04" vaporized="">
        <emissions CO_abs="9747.593504" CO2_abs="331504.736044" HC_abs="52.116090" PMx_abs="6.619571" NOx_abs="139.008588" fuel_abs="142.502653" electricity_abs="0"/>
    </tripinfo>
    <tripinfo id="L2-AV-1" depart="126.40" departLane="bottom-approaching_0" departPos="5.10" departSpeed="0.00" departDelay="0.40" arrival="239.10" arrivalLane="right-exit_0" arrivalPos="486.40" arrivalSpeed="14.87" duration="112.70" routeLength="979.43" waitingTime="35.70" waitingCount="1" stopTime="0.00" timeLoss="45.72" rerouteNo="0" devices="tripinfo_L2-AV-1 emissions_L2-AV-1 ssm_L2-AV-1 toc_L2-AV-1 driverstateL2-AV-1" vType="L2-AV-23" speedFactor="0.89" vaporized="">
        <emissions CO_abs="8057.375180" CO2_abs="325322.213702" HC_abs="41.783995" PMx_abs="5.046473" NOx_abs="124.803658" fuel_abs="139.845721" electricity_abs="0"/>
    </tripinfo>
    <tripinfo id="L2-CV-9" depart="174.00" departLane="top-approaching_0" departPos="5.10" departSpeed="0.00" departDelay="0.00" arrival="241.30" arrivalLane="bottom-exit_1" arrivalPos="486.40" arrivalSpeed="16.72" duration="67.30" routeLength="994.90" waitingTime="0.00" waitingCount="0" stopTime="0.00" timeLoss="7.68" rerouteNo="0" devices="tripinfo_L2-CV-9 emissions_L2-CV-9 ssm_L2-CV-9 toc_L2-CV-9 driverstateL2-CV-9" vType="L2-CV-64" speedFactor="1.00" vaporized="">
        <emissions CO_abs="1659.797955" CO2_abs="225890.823963" HC_abs="10.313137" PMx_abs="2.772173" NOx_abs="79.142469" fuel_abs="97.101198" electricity_abs="0"/>
    </tripinfo>
    <tripinfo id="L4-AV-0" depart="120.00" departLane="bottom-approaching_0" departPos="5.10" departSpeed="0.00" departDelay="0.00" arrival="242.30" arrivalLane="top-exit_0" arrivalPos="486.40" arrivalSpeed="13.99" duration="122.30" routeLength="994.90" waitingTime="39.50" waitingCount="1" stopTime="0.00" timeLoss="51.11" rerouteNo="0" devices="tripinfo_L4-AV-0 emissions_L4-AV-0 ssm_L4-AV-0 toc_L4-AV-0 driverstateL4-AV-0" vType="L4-AV-74" speedFactor="0.84" vaporized="">
        <emissions CO_abs="8627.883922" CO2_abs="334818.511741" HC_abs="45.212384" PMx_abs="5.118752" NOx_abs="128.681297" fuel_abs="143.928341" electricity_abs="0"/>
    </tripinfo>
    <tripinfo id="L2-CV-4" depart="147.00" departLane="top-approaching_0" departPos="5.10" departSpeed="0.00" departDelay="3.00" arrival="243.20" arrivalLane="bottom-exit_0" arrivalPos="486.40" arrivalSpeed="14.62" duration="96.20" routeLength="994.90" waitingTime="10.70" waitingCount="1" stopTime="0.00" timeLoss="28.16" rerouteNo="0" devices="tripinfo_L2-CV-4 emissions_L2-CV-4 ssm_L2-CV-4 toc_L2-CV-4 driverstateL2-CV-4" vType="L2-CV-84" speedFactor="0.88" vaporized="">
        <emissions CO_abs="3274.662335" CO2_abs="254361.680756" HC_abs="18.688007" PMx_abs="3.123229" NOx_abs="91.493167" fuel_abs="109.340754" electricity_abs="0"/>
    </tripinfo>
    <tripinfo id="L2-AV-0" depart="123.20" departLane="bottom-approaching_0" departPos="5.10" departSpeed="0.00" departDelay="3.20" arrival="243.90" arrivalLane="top-exit_0" arrivalPos="486.40" arrivalSpeed="16.50" duration="120.70" routeLength="994.90" waitingTime="37.30" waitingCount="2" stopTime="0.00" timeLoss="60.62" rerouteNo="0" devices="tripinfo_L2-AV-0 emissions_L2-AV-0 ssm_L2-AV-0 toc_L2-AV-0 driverstateL2-AV-0" vType="L2-AV-56" speedFactor="1.00" vaporized="">
        <emissions CO_abs="3332.997901" CO2_abs="178428.428226" HC_abs="19.167744" PMx_abs="3.209643" NOx_abs="72.810398" fuel_abs="76.699179" electricity_abs="0"/>
    </tripinfo>
    <tripinfo id="L2-CV-7" depart="162.00" departLane="bottom-approaching_0" departPos="5.10" departSpeed="0.00" departDelay="0.00" arrival="244.90" arrivalLane="top-exit_1" arrivalPos="486.40" arrivalSpeed="16.95" duration="82.90" routeLength="994.90" waitingTime="0.00" waitingCount="0" stopTime="0.00" timeLoss="24.14" rerouteNo="0" devices="tripinfo_L2-CV-7 emissions_L2-CV-7 ssm_L2-CV-7 toc_L2-CV-7 driverstateL2-CV-7" vType="L2-CV-59" speedFactor="1.02" vaporized="">
        <emissions CO_abs="2889.280554" CO2_abs="255203.447596" HC_abs="17.190000" PMx_abs="3.472628" NOx_abs="93.044192" fuel_abs="109.701867" electricity_abs="0"/>
    </tripinfo>
    <tripinfo id="L2-AV-6" depart="156.00" departLane="bottom-approaching_0" departPos="5.10" departSpeed="0.00" departDelay="0.00" arrival="246.10" arrivalLane="top-exit_0" arrivalPos="486.40" arrivalSpeed="15.11" duration="90.10" routeLength="994.90" waitingTime="0.00" waitingCount="0" stopTime="0.00" timeLoss="24.17" rerouteNo="0" devices="tripinfo_L2-AV-6 emissions_L2-AV-6 ssm_L2-AV-6 toc_L2-AV-6 driverstateL2-AV-6" vType="L2-AV-3" speedFactor="0.91" vaporized="">
        <emissions CO_abs="2318.627077" CO2_abs="231432.686513" HC_abs="13.488085" PMx_abs="2.767622" NOx_abs="82.276990" fuel_abs="99.483921" electricity_abs="0"/>
    </tripinfo>
    <tripinfo id="L4-CV-2" depart="144.00" departLane="top-approaching_0" departPos="5.10" departSpeed="0.00" departDelay="0.00" arrival="250.60" arrivalLane="right-exit_0" arrivalPos="486.40" arrivalSpeed="16.26" duration="106.60" routeLength="992.21" waitingTime="29.70" waitingCount="2" stopTime="0.00" timeLoss="44.52" rerouteNo="0" devices="tripinfo_L4-CV-2 emissions_L4-CV-2 ssm_L4-CV-2 toc_L4-CV-2 driverstateL4-CV-2" vType="L4-CV-89" speedFactor="0.98" vaporized="">
        <emissions CO_abs="7593.503484" CO2_abs="326503.604580" HC_abs="39.586787" PMx_abs="5.260411" NOx_abs="125.749297" fuel_abs="140.352890" electricity_abs="0"/>
    </tripinfo>
    <tripinfo id="L2-CV-14" depart="207.00" departLane="left-long-approaching_0" departPos="5.10" departSpeed="0.00" departDelay="3.00" arrival="282.80" arrivalLane="bottom-exit_1" arrivalPos="486.40" arrivalSpeed="18.04" duration="75.80" routeLength="979.53" waitingTime="3.70" waitingCount="1" stopTime="0.00" timeLoss="20.56" rerouteNo="0" devices="tripinfo_L2-CV-14 emissions_L2-CV-14 ssm_L2-CV-14 toc_L2-CV-14 driverstateL2-CV-14" vType="L2-CV-Right-48" speedFactor="1.08" vaporized="">
        <emissions CO_abs="2866.283721" CO2_abs="256486.963048" HC_abs="16.955134" PMx_abs="3.807573" NOx_abs="94.510593" fuel_abs="110.253151" electricity_abs="0"/>
    </tripinfo>
    <tripinfo id="L2-AV-10" depart="184.00" departLane="left-long-approaching_0" departPos="5.10" departSpeed="0.00" departDelay="4.00" arrival="283.20" arrivalLane="bottom-exit_0" arrivalPos="486.40" arrivalSpeed="16.12" duration="99.20" routeLength="979.53" waitingTime="29.00" waitingCount="1" stopTime="0.00" timeLoss="37.51" rerouteNo="0" devices="tripinfo_L2-AV-10 emissions_L2-AV-10 ssm_L2-AV-10 toc_L2-AV-10 driverstateL2-AV-10" vType="L0-HDV-29" speedFactor="0.97" vaporized="">
        <emissions CO_abs="7315.867317" CO2_abs="292738.754350" HC_abs="39.141122" PMx_abs="5.371095" NOx_abs="118.382965" fuel_abs="125.838044" electricity_abs="0"/>
    </tripinfo>
    <tripinfo id="L4-AV-3" depart="159.90" departLane="right-approaching_0" departPos="5.10" departSpeed="0.00" departDelay="3.90" arrival="286.20" arrivalLane="top-exit_0" arrivalPos="486.40" arrivalSpeed="15.82" duration="126.30" routeLength="979.43" waitingTime="50.20" waitingCount="1" stopTime="0.00" timeLoss="63.31" rerouteNo="0" devices="tripinfo_L4-AV-3 emissions_L4-AV-3 ssm_L4-AV-3 toc_L4-AV-3 driverstateL4-AV-3" vType="L4-AV-56" speedFactor="0.95" vaporized="">
        <emissions CO_abs="10752.357341" CO2_abs="369316.297291" HC_abs="54.928543" PMx_abs="6.309149" NOx_abs="145.589519" fuel_abs="158.757879" electricity_abs="0"/>
    </tripinfo>
    <tripinfo id="L2-CV-10" depart="180.00" departLane="left-long-approaching_0" departPos="5.10" departSpeed="0.00" departDelay="0.00" arrival="286.20" arrivalLane="right-exit_0" arrivalPos="486.40" arrivalSpeed="16.56" duration="106.20" routeLength="995.23" waitingTime="26.70" waitingCount="2" stopTime="0.00" timeLoss="46.20" rerouteNo="0" devices="tripinfo_L2-CV-10 emissions_L2-CV-10 ssm_L2-CV-10 toc_L2-CV-10 driverstateL2-CV-10" vType="L0-HDV-16" speedFactor="1.00" vaporized="">
        <emissions CO_abs="7738.356043" CO2_abs="311908.949284" HC_abs="41.991983" PMx_abs="5.625715" NOx_abs="126.105630" fuel_abs="134.078779" electricity_abs="0"/>
    </tripinfo>
    <tripinfo id="L2-CV-11" depart="186.00" departLane="right-approaching_0" departPos="5.10" departSpeed="0.00" departDelay="0.00" arrival="286.40" arrivalLane="top-exit_1" arrivalPos="486.40" arrivalSpeed="19.05" duration="100.40" routeLength="979.43" waitingTime="26.50" waitingCount="1" stopTime="0.00" timeLoss="48.21" rerouteNo="0" devices="tripinfo_L2-CV-11 emissions_L2-CV-11 ssm_L2-CV-11 toc_L2-CV-11 driverstateL2-CV-11" vType="L2-CV-34" speedFactor="1.14" vaporized="">
        <emissions CO_abs="6067.126438" CO2_abs="311859.414099" HC_abs="33.479410" PMx_abs="5.329885" NOx_abs="120.827770" fuel_abs="134.056678" electricity_abs="0"/>
    </tripinfo>
    <tripinfo id="L2-AV-13" depart="198.00" departLane="left-long-approaching_0" departPos="5.10" departSpeed="0.00" departDelay="0.00" arrival="286.90" arrivalLane="right-exit_1" arrivalPos="486.40" arrivalSpeed="17.75" duration="88.90" routeLength="995.23" waitingTime="0.00" waitingCount="0" stopTime="0.00" timeLoss="32.77" rerouteNo="0" devices="tripinfo_L2-AV-13 emissions_L2-AV-13 ssm_L2-AV-13 toc_L2-AV-13 driverstateL2-AV-13" vType="L2-AV-73" speedFactor="1.06" vaporized="">
        <emissions CO_abs="2516.464318" CO2_abs="232715.575568" HC_abs="15.029383" PMx_abs="3.316726" NOx_abs="85.549305" fuel_abs="100.034892" electricity_abs="0"/>
    </tripinfo>
    <tripinfo id="L2-CV-15" depart="210.00" departLane="left-long-approaching_0" departPos="5.10" departSpeed="0.00" departDelay="0.00" arrival="287.00" arrivalLane="bottom-exit_0" arrivalPos="486.40" arrivalSpeed="18.66" duration="77.00" routeLength="979.53" waitingTime="0.40" waitingCount="4" stopTime="0.00" timeLoss="23.64" rerouteNo="0" devices="tripinfo_L2-CV-15 emissions_L2-CV-15 ssm_L2-CV-15 toc_L2-CV-15 driverstateL2-CV-15" vType="L2-CV-Right-85" speedFactor="1.12" vaporized="">
        <emissions CO_abs="3807.482096" CO2_abs="280882.360314" HC_abs="22.536884" PMx_abs="4.309573" NOx_abs="105.279323" fuel_abs="120.740168" electricity_abs="0"/>
    </tripinfo>
    <tripinfo id="L0-HDV-3" depart="174.00" departLane="right-approaching_0" departPos="5.10" departSpeed="0.00" departDelay="0.00" arrival="287.40" arrivalLane="top-exit_1" arrivalPos="486.40" arrivalSpeed="18.17" duration="113.40" routeLength="979.43" waitingTime="39.00" waitingCount="1" stopTime="0.00" timeLoss="58.62" rerouteNo="0" devices="tripinfo_L0-HDV-3 emissions_L0-HDV-3 ssm_L0-HDV-3" vType="L0-HDV-85" speedFactor="1.09" vaporized="">
        <emissions CO_abs="9756.855029" CO2_abs="321812.697749" HC_abs="51.745641" PMx_abs="6.351407" NOx_abs="134.091108" fuel_abs="138.336747" electricity_abs="0"/>
    </tripinfo>
    <tripinfo id="L4-AV-7" depart="204.00" departLane="left-long-approaching_0" departPos="5.10" departSpeed="0.00" departDelay="0.00" arrival="290.90" arrivalLane="right-exit_0" arrivalPos="486.40" arrivalSpeed="16.76" duration="86.90" routeLength="995.23" waitingTime="0.00" waitingCount="0" stopTime="0.00" timeLoss="27.45" rerouteNo="0" devices="tripinfo_L4-AV-7 emissions_L4-AV-7 ssm_L4-AV-7 toc_L4-AV-7 driverstateL4-AV-7" vType="L4-AV-38" speedFactor="1.01" vaporized="">
        <emissions CO_abs="2687.254248" CO2_abs="237974.545719" HC_abs="15.763561" PMx_abs="3.218473" NOx_abs="86.788381" fuel_abs="102.295805" electricity_abs="0"/>
    </tripinfo>
    <tripinfo id="L2-AV-15" depart="213.80" departLane="left-long-approaching_0" departPos="5.10" departSpeed="0.00" departDelay="3.80" arrival="293.00" arrivalLane="right-exit_1" arrivalPos="486.40" arrivalSpeed="18.31" duration="79.20" routeLength="995.23" waitingTime="0.00" waitingCount="0" stopTime="0.00" timeLoss="24.73" rerouteNo="0" devices="tripinfo_L2-AV-15 emissions_L2-AV-15 ssm_L2-AV-15 toc_L2-AV-15 driverstateL2-AV-15" vType="L2-AV-52" speedFactor="1.10" vaporized="">
        <emissions CO_abs="2434.183902" CO2_abs="219525.453754" HC_abs="14.786119" PMx_abs="3.208846" NOx_abs="81.445668" fuel_abs="94.364966" electricity_abs="0"/>
    </tripinfo>
    <tripinfo id="L4-CV-7" depart="204.00" departLane="right-approaching_0" departPos="5.10" departSpeed="0.00" departDelay="0.00" arrival="295.30" arrivalLane="top-exit_0" arrivalPos="486.40" arrivalSpeed="14.64" duration="91.30" routeLength="979.43" waitingTime="3.40" waitingCount="28" stopTime="0.00" timeLoss="23.31" rerouteNo="0" devices="tripinfo_L4-CV-7 emissions_L4-CV-7 ssm_L4-CV-7 toc_L4-CV-7 driverstateL4-CV-7" vType="L4-CV-22" speedFactor="0.88" vaporized="">
        <emissions CO_abs="3482.599673" CO2_abs="257770.761795" HC_abs="20.031503" PMx_abs="3.227976" NOx_abs="93.456269" fuel_abs="110.806268" electricity_abs="0"/>
    </tripinfo>
    <tripinfo id="L2-AV-14" depart="209.80" departLane="left-long-approaching_0" departPos="5.10" departSpeed="0.00" departDelay="5.80" arrival="295.30" arrivalLane="right-exit_0" arrivalPos="486.40" arrivalSpeed="15.47" duration="85.50" routeLength="995.23" waitingTime="0.00" waitingCount="0" stopTime="0.00" timeLoss="21.08" rerouteNo="0" devices="tripinfo_L2-AV-14 emissions_L2-AV-14 ssm_L2-AV-14 toc_L2-AV-14 driverstateL2-AV-14" vType="L2-AV-57" speedFactor="0.93" vaporized="">
        <emissions CO_abs="2279.327198" CO2_abs="217625.005576" HC_abs="13.265579" PMx_abs="2.707152" NOx_abs="78.199818" fuel_abs="93.548466" electricity_abs="0"/>
    </tripinfo>
    <tripinfo id="L4-CV-5" depart="180.00" departLane="right-approaching_0" departPos="5.10" departSpeed="0.00" departDelay="0.00" arrival="303.80" arrivalLane="bottom-exit_0" arrivalPos="486.40" arrivalSpeed="16.52" duration="123.80" routeLength="992.21" waitingTime="40.80" waitingCount="2" stopTime="0.00" timeLoss="62.73" rerouteNo="0" devices="tripinfo_L4-CV-5 emissions_L4-CV-5 ssm_L4-CV-5 toc_L4-CV-5 driverstateL4-CV-5" vType="L4-CV-12" speedFactor="0.99" vaporized="">
        <emissions CO_abs="10247.743481" CO2_abs="371430.325214" HC_abs="53.042669" PMx_abs="6.304568" NOx_abs="146.126818" fuel_abs="159.666280" electricity_abs="0"/>
    </tripinfo>
    <tripinfo id="L4-AV-10" depart="240.00" departLane="bottom-approaching_0" departPos="5.10" departSpeed="0.00" departDelay="0.00" arrival="338.20" arrivalLane="right-exit_1" arrivalPos="486.40" arrivalSpeed="19.66" duration="98.20" routeLength="979.43" waitingTime="0.00" waitingCount="0" stopTime="0.00" timeLoss="47.49" rerouteNo="0" devices="tripinfo_L4-AV-10 emissions_L4-AV-10 ssm_L4-AV-10 toc_L4-AV-10 driverstateL4-AV-10" vType="L4-AV-42" speedFactor="1.18" vaporized="">
        <emissions CO_abs="2765.854672" CO2_abs="248824.773409" HC_abs="16.424279" PMx_abs="3.762569" NOx_abs="92.050797" fuel_abs="106.959387" electricity_abs="0"/>
    </tripinfo>
    <tripinfo id="L2-AV-12" depart="192.00" departLane="bottom-approaching_0" departPos="5.10" departSpeed="0.00" departDelay="0.00" arrival="338.70" arrivalLane="right-exit_0" arrivalPos="486.40" arrivalSpeed="16.90" duration="146.70" routeLength="979.43" waitingTime="77.40" waitingCount="1" stopTime="0.00" timeLoss="87.85" rerouteNo="0" devices="tripinfo_L2-AV-12 emissions_L2-AV-12 ssm_L2-AV-12 toc_L2-AV-12 driverstateL2-AV-12" vType="L2-AV-24" speedFactor="1.01" vaporized="">
        <emissions CO_abs="15014.786439" CO2_abs="443284.224446" HC_abs="76.225513" PMx_abs="8.332270" NOx_abs="179.732711" fuel_abs="190.555194" electricity_abs="0"/>
    </tripinfo>
    <tripinfo id="L4-AV-8" depart="216.00" departLane="bottom-approaching_0" departPos="5.10" departSpeed="0.00" departDelay="0.00" arrival="341.90" arrivalLane="top-exit_0" arrivalPos="486.40" arrivalSpeed="16.58" duration="125.90" routeLength="994.90" waitingTime="51.50" waitingCount="1" stopTime="0.00" timeLoss="65.85" rerouteNo="0" devices="tripinfo_L4-AV-8 emissions_L4-AV-8 ssm_L4-AV-8 toc_L4-AV-8 driverstateL4-AV-8" vType="L4-AV-41" speedFactor="0.99" vaporized="">
        <emissions CO_abs="11087.523727" CO2_abs="381400.292698" HC_abs="56.768821" PMx_abs="6.656047" NOx_abs="150.834110" fuel_abs="163.952246" electricity_abs="0"/>
    </tripinfo>
    <tripinfo id="L2-AV-19" depart="234.00" departLane="bottom-approaching_0" departPos="5.10" departSpeed="0.00" departDelay="0.00" arrival="344.20" arrivalLane="top-exit_0" arrivalPos="486.40" arrivalSpeed="16.74" duration="110.20" routeLength="994.90" waitingTime="0.00" waitingCount="0" stopTime="0.00" timeLoss="50.66" rerouteNo="0" devices="tripinfo_L2-AV-19 emissions_L2-AV-19 ssm_L2-AV-19 toc_L2-AV-19 driverstateL2-AV-19" vType="L2-AV-97" speedFactor="1.00" vaporized="">
        <emissions CO_abs="2842.578322" CO2_abs="244321.368475" HC_abs="16.482836" PMx_abs="3.331526" NOx_abs="89.167846" fuel_abs="105.024078" electricity_abs="0"/>
    </tripinfo>
    <tripinfo id="L2-AV-23" depart="258.00" departLane="bottom-approaching_0" departPos="5.10" departSpeed="0.00" departDelay="0.00" arrival="345.70" arrivalLane="top-exit_0" arrivalPos="486.40" arrivalSpeed="17.19" duration="87.70" routeLength="994.90" waitingTime="0.00" waitingCount="0" stopTime="0.00" timeLoss="29.78" rerouteNo="0" devices="tripinfo_L2-AV-23 emissions_L2-AV-23 ssm_L2-AV-23 toc_L2-AV-23 driverstateL2-AV-23" vType="L2-AV-70" speedFactor="1.03" vaporized="">
        <emissions CO_abs="2618.366650" CO2_abs="240869.788070" HC_abs="15.401932" PMx_abs="3.306924" NOx_abs="87.750445" fuel_abs="103.540217" electricity_abs="0"/>
    </tripinfo>
    <tripinfo id="L2-CV-24" depart="264.10" departLane="bottom-approaching_0" departPos="5.10" departSpeed="0.00" departDelay="0.10" arrival="346.80" arrivalLane="right-exit_0" arrivalPos="486.40" arrivalSpeed="16.42" duration="82.70" routeLength="979.43" waitingTime="0.00" waitingCount="0" stopTime="0.00" timeLoss="22.05" rerouteNo="0" devices="tripinfo_L2-CV-24 emissions_L2-CV-24 ssm_L2-CV-24 toc_L2-CV-24 driverstateL2-CV-24" vType="L2-CV-85" speedFactor="0.98" vaporized="">
        <emissions CO_abs="3064.597214" CO2_abs="256322.771479" HC_abs="17.956747" PMx_abs="3.401868" NOx_abs="93.340123" fuel_abs="110.183241" electricity_abs="0"/>
    </tripinfo>
    <tripinfo id="L0-HDV-8" depart="271.30" departLane="bottom-approaching_0" departPos="5.10" departSpeed="0.00" departDelay="7.30" arrival="347.00" arrivalLane="top-exit_0" arrivalPos="486.40" arrivalSpeed="16.99" duration="75.70" routeLength="994.90" waitingTime="0.00" waitingCount="0" stopTime="0.00" timeLoss="17.14" rerouteNo="0" devices="tripinfo_L0-HDV-8 emissions_L0-HDV-8 ssm_L0-HDV-8" vType="L0-HDV-11" speedFactor="1.02" vaporized="">
        <emissions CO_abs="2531.708919" CO2_abs="192461.414943" HC_abs="15.414911" PMx_abs="3.127640" NOx_abs="74.584752" fuel_abs="82.731104" electricity_abs="0"/>
    </tripinfo>
    <tripinfo id="L2-AV-24" depart="267.90" departLane="bottom-approaching_0" departPos="5.10" departSpeed="0.00" departDelay="3.90" arrival="347.10" arrivalLane="right-exit_1" arrivalPos="486.40" arrivalSpeed="17.68" duration="79.20" routeLength="979.43" waitingTime="0.00" waitingCount="0" stopTime="0.00" timeLoss="22.93" rerouteNo="0" devices="tripinfo_L2-AV-24 emissions_L2-AV-24 ssm_L2-AV-24 toc_L2-AV-24 driverstateL2-AV-24" vType="L2-AV-89" speedFactor="1.06" vaporized="">
        <emissions CO_abs="3432.890087" CO2_abs="223653.530401" HC_abs="19.987900" PMx_abs="3.695307" NOx_abs="87.658293" fuel_abs="96.139526" electricity_abs="0"/>
    </tripinfo>
    <tripinfo id="L2-AV-16" depart="219.00" departLane="top-approaching_0" departPos="5.10" departSpeed="0.00" departDelay="3.00" arrival="353.20" arrivalLane="right-exit_1" arrivalPos="486.40" arrivalSpeed="18.28" duration="134.20" routeLength="992.21" waitingTime="57.00" waitingCount="2" stopTime="0.00" timeLoss="79.05" rerouteNo="0" devices="tripinfo_L2-AV-16 emissions_L2-AV-16 ssm_L2-AV-16 toc_L2-AV-16 driverstateL2-AV-16" vType="L2-AV-24" speedFactor="1.10" vaporized="">
        <emissions CO_abs="12233.698404" CO2_abs="357732.359560" HC_abs="62.939599" PMx_abs="7.042627" NOx_abs="148.099097" fuel_abs="153.778573" electricity_abs="0"/>
    </tripinfo>
    <tripinfo id="L4-CV-8" depart="216.00" departLane="top-approaching_0" departPos="5.10" departSpeed="0.00" departDelay="0.00" arrival="354.60" arrivalLane="right-exit_0" arrivalPos="486.40" arrivalSpeed="15.61" duration="138.60" routeLength="992.21" waitingTime="58.20" waitingCount="2" stopTime="0.00" timeLoss="73.93" rerouteNo="0" devices="tripinfo_L4-CV-8 emissions_L4-CV-8 ssm_L4-CV-8 toc_L4-CV-8 driverstateL4-CV-8" vType="L4-CV-81" speedFactor="0.94" vaporized="">
        <emissions CO_abs="12132.538543" CO2_abs="396455.433663" HC_abs="62.383641" PMx_abs="6.927905" NOx_abs="157.813543" fuel_abs="170.424522" electricity_abs="0"/>
    </tripinfo>
    <tripinfo id="L2-AV-29" depart="294.00" departLane="bottom-approaching_0" departPos="5.10" departSpeed="0.00" departDelay="0.00" arrival="357.50" arrivalLane="top-exit_0" arrivalPos="486.40" arrivalSpeed="18.64" duration="63.50" routeLength="994.90" waitingTime="0.00" waitingCount="0" stopTime="0.00" timeLoss="10.04" rerouteNo="0" devices="tripinfo_L2-AV-29 emissions_L2-AV-29 ssm_L2-AV-29 toc_L2-AV-29 driverstateL2-AV-29" vType="L2-AV-51" speedFactor="1.12" vaporized="">
        <emissions CO_abs="1296.399871" CO2_abs="212341.626168" HC_abs="7.990360" PMx_abs="2.444085" NOx_abs="72.067005" fuel_abs="91.277015" electricity_abs="0"/>
    </tripinfo>
    <tripinfo id="L2-CV-18" depart="231.10" departLane="top-approaching_0" departPos="5.10" departSpeed="0.00" departDelay="3.10" arrival="368.40" arrivalLane="right-exit_0" arrivalPos="486.40" arrivalSpeed="14.71" duration="137.30" routeLength="992.21" waitingTime="40.00" waitingCount="3" stopTime="0.00" timeLoss="68.92" rerouteNo="0" devices="tripinfo_L2-CV-18 emissions_L2-CV-18 ssm_L2-CV-18 toc_L2-CV-18 driverstateL2-CV-18" vType="L2-CV-20" speedFactor="0.88" vaporized="">
        <emissions CO_abs="8202.979062" CO2_abs="334841.414276" HC_abs="43.324718" PMx_abs="5.173236" NOx_abs="128.914118" fuel_abs="143.937757" electricity_abs="0"/>
    </tripinfo>
    <tripinfo id="L2-CV-28" depart="288.00" departLane="left-long-approaching_0" departPos="5.10" departSpeed="0.00" departDelay="0.00" arrival="383.40" arrivalLane="bottom-exit_0" arrivalPos="486.40" arrivalSpeed="17.24" duration="95.40" routeLength="979.53" waitingTime="25.90" waitingCount="1" stopTime="0.00" timeLoss="37.59" rerouteNo="0" devices="tripinfo_L2-CV-28 emissions_L2-CV-28 ssm_L2-CV-28 toc_L2-CV-28 driverstateL2-CV-28" vType="L2-CV-Right-74" speedFactor="1.03" vaporized="">
        <emissions CO_abs="6680.788977" CO2_abs="307312.003662" HC_abs="34.871547" PMx_abs="5.054491" NOx_abs="118.058427" fuel_abs="132.102549" electricity_abs="0"/>
    </tripinfo>
    <tripinfo id="L2-AV-25" depart="270.00" departLane="right-approaching_0" departPos="5.10" departSpeed="0.00" departDelay="0.00" arrival="384.10" arrivalLane="top-exit_0" arrivalPos="486.40" arrivalSpeed="17.21" duration="114.10" routeLength="979.43" waitingTime="44.50" waitingCount="1" stopTime="0.00" timeLoss="56.23" rerouteNo="0" devices="tripinfo_L2-AV-25 emissions_L2-AV-25 ssm_L2-AV-25 toc_L2-AV-25 driverstateL2-AV-25" vType="L2-AV-38" speedFactor="1.03" vaporized="">
        <emissions CO_abs="9815.971137" CO2_abs="358559.448520" HC_abs="50.321224" PMx_abs="6.302211" NOx_abs="141.320264" fuel_abs="154.133103" electricity_abs="0"/>
    </tripinfo>
    <tripinfo id="L4-CV-15" depart="300.00" departLane="left-long-approaching_0" departPos="5.10" departSpeed="0.00" departDelay="0.00" arrival="388.30" arrivalLane="bottom-exit_0" arrivalPos="486.40" arrivalSpeed="16.25" duration="88.30" routeLength="979.53" waitingTime="8.80" waitingCount="24" stopTime="0.00" timeLoss="27.07" rerouteNo="0" devices="tripinfo_L4-CV-15 emissions_L4-CV-15 ssm_L4-CV-15 toc_L4-CV-15 driverstateL4-CV-15" vType="L4-CV-Right-30" speedFactor="0.98" vaporized="">
        <emissions CO_abs="3828.952562" CO2_abs="265969.151252" HC_abs="21.464336" PMx_abs="3.710222" NOx_abs="97.916529" fuel_abs="114.330112" electricity_abs="0"/>
    </tripinfo>
    <tripinfo id="L2-CV-25" depart="270.00" departLane="left-long-approaching_0" departPos="5.10" departSpeed="0.00" departDelay="0.00" arrival="390.90" arrivalLane="right-exit_0" arrivalPos="486.40" arrivalSpeed="17.21" duration="120.90" routeLength="995.23" waitingTime="35.60" waitingCount="3" stopTime="0.00" timeLoss="63.16" rerouteNo="0" devices="tripinfo_L2-CV-25 emissions_L2-CV-25 ssm_L2-CV-25 toc_L2-CV-25 driverstateL2-CV-25" vType="L2-CV-94" speedFactor="1.03" vaporized="">
        <emissions CO_abs="7751.780198" CO2_abs="333078.667754" HC_abs="41.076460" PMx_abs="5.436334" NOx_abs="128.930728" fuel_abs="143.179288" electricity_abs="0"/>
    </tripinfo>