<?xml version="1.0" encoding="UTF-8"?>

<!-- generated on 04/18/21 13:03:24 by Eclipse SUMO GUI Version 1.8.0
<configuration xmlns:xsi="http://www.w3.org/2001/XMLSchema-instance" xsi:noNamespaceSchemaLocation="http://sumo.dlr.de/xsd/sumoConfiguration.xsd">

    <input>
        <net-file value="Collision\BaselinePenetration3\../CollisionIntersection.net.xml"/>
        <route-files value="Collision\BaselinePenetration3\../CrashedVehicleRoutes.rou.xml,Collision\BaselinePenetration3\Route-Files/L4-CV-Route.rou.xml,Collision\BaselinePenetration3\Route-Files/L4-AV-Route.rou.xml,Collision\BaselinePenetration3\Route-Files/L2-CV-Route.rou.xml,Collision\BaselinePenetration3\Route-Files/L2-AV-Route.rou.xml,Collision\BaselinePenetration3\Route-Files/L0-HDV-Route.rou.xml"/>
        <additional-files value="Collision\BaselinePenetration3\../Additional-Files/Collision-Detectors.add.xml,Collision\BaselinePenetration3\../Additional-Files/Collision-TMS-Rerouters.add.xml,Collision\BaselinePenetration3\PreparingVehicleModels/Vehicle-Models/L4-CV.add.xml,Collision\BaselinePenetration3\PreparingVehicleModels/Vehicle-Models/L4-CV-Left.add.xml,Collision\BaselinePenetration3\PreparingVehicleModels/Vehicle-Models/L4-CV-Right.add.xml,Collision\BaselinePenetration3\PreparingVehicleModels/Vehicle-Models/L4-AV.add.xml,Collision\BaselinePenetration3\PreparingVehicleModels/Vehicle-Models/L4-AV-Left.add.xml,Collision\BaselinePenetration3\PreparingVehicleModels/Vehicle-Models/L4-AV-Right.add.xml,Collision\BaselinePenetration3\PreparingVehicleModels/Vehicle-Models/L2-CV.add.xml,Collision\BaselinePenetration3\PreparingVehicleModels/Vehicle-Models/L2-CV-Left.add.xml,Collision\BaselinePenetration3\PreparingVehicleModels/Vehicle-Models/L2-CV-Right.add.xml,Collision\BaselinePenetration3\PreparingVehicleModels/Vehicle-Models/L2-AV.add.xml,Collision\BaselinePenetration3\PreparingVehicleModels/Vehicle-Models/L2-AV-Left.add.xml,Collision\BaselinePenetration3\PreparingVehicleModels/Vehicle-Models/L2-AV-Right.add.xml,Collision\BaselinePenetration3\PreparingVehicleModels/Vehicle-Models/L0-HDV.add.xml,Collision\BaselinePenetration3\PreparingVehicleModels/Vehicle-Models/L0-HDV-Left.add.xml,Collision\BaselinePenetration3\PreparingVehicleModels/Vehicle-Models/L0-HDV-Straight.add.xml,Collision\BaselinePenetration3\../Additional-Files/Collision-Traffic-lights.add.xml,Collision\BaselinePenetration3\../Additional-Files/Collision-Traffic-Signs.add.xml"/>
    </input>

    <output>
        <tripinfo-output value="Collision\BaselinePenetration3\Output-Files\TripInfo.xml"/>
    </output>

    <time>
        <begin value="0"/>
        <step-length value="0.1"/>
    </time>

    <processing>
        <ignore-route-errors value="true"/>
        <waiting-time-memory value="300"/>
        <default.action-step-length value="0.1"/>
    </processing>

    <report>
        <no-warnings value="true"/>
    </report>

    <emissions>
        <device.emissions.probability value="1"/>
    </emissions>

    <traci_server>
        <remote-port value="55071"/>
    </traci_server>

    <gui_only>
        <start value="true"/>
        <tracker-interval value="0.1"/>
    </gui_only>

</configuration>
-->

<tripinfos xmlns:xsi="http://www.w3.org/2001/XMLSchema-instance" xsi:noNamespaceSchemaLocation="http://sumo.dlr.de/xsd/tripinfo_file.xsd">
    <tripinfo id="L2-CV-5" depart="141.00" departLane="right-approaching_0" departPos="5.10" departSpeed="0.00" departDelay="0.00" arrival="205.40" arrivalLane="bottom-exit_0" arrivalPos="486.40" arrivalSpeed="17.24" duration="64.40" routeLength="992.21" waitingTime="0.00" waitingCount="0" stopTime="0.00" timeLoss="5.87" rerouteNo="0" devices="tripinfo_L2-CV-5 emissions_L2-CV-5 ssm_L2-CV-5 toc_L2-CV-5 driverstateL2-CV-5" vType="L2-CV-74" speedFactor="1.03" vaporized="">
        <emissions CO_abs="1678.254595" CO2_abs="223476.239256" HC_abs="10.158367" PMx_abs="2.844562" NOx_abs="78.488733" fuel_abs="96.063147" electricity_abs="0"/>
    </tripinfo>
    <tripinfo id="L2-AV-3" depart="132.60" departLane="top-approaching_0" departPos="5.10" departSpeed="0.00" departDelay="0.00" arrival="230.50" arrivalLane="bottom-exit_0" arrivalPos="486.40" arrivalSpeed="18.57" duration="97.90" routeLength="994.90" waitingTime="30.90" waitingCount="1" stopTime="0.00" timeLoss="44.25" rerouteNo="0" devices="tripinfo_L2-AV-3 emissions_L2-AV-3 ssm_L2-AV-3 toc_L2-AV-3 driverstateL2-AV-3" vType="L2-AV-3" speedFactor="1.11" vaporized="">
        <emissions CO_abs="7762.660528" CO2_abs="338211.748744" HC_abs="40.989127" PMx_abs="5.902961" NOx_abs="131.926114" fuel_abs="145.385243" electricity_abs="0"/>
    </tripinfo>
    <tripinfo id="L4-AV-1" depart="131.40" departLane="bottom-approaching_0" departPos="5.10" departSpeed="0.00" departDelay="3.00" arrival="231.30" arrivalLane="right-exit_0" arrivalPos="486.40" arrivalSpeed="17.30" duration="99.90" routeLength="979.43" waitingTime="30.90" waitingCount="1" stopTime="0.00" timeLoss="42.37" rerouteNo="0" devices="tripinfo_L4-AV-1 emissions_L4-AV-1 ssm_L4-AV-1 toc_L4-AV-1 driverstateL4-AV-1" vType="L4-AV-28" speedFactor="1.04" vaporized="">
        <emissions CO_abs="7529.048202" CO2_abs="317243.318190" HC_abs="39.074727" PMx_abs="5.382008" NOx_abs="123.294513" fuel_abs="136.371959" electricity_abs="0"/>
    </tripinfo>
    <tripinfo id="L4-CV-3" depart="145.20" departLane="top-approaching_0" departPos="5.10" departSpeed="0.00" departDelay="0.00" arrival="235.50" arrivalLane="bottom-exit_0" arrivalPos="486.40" arrivalSpeed="18.72" duration="90.30" routeLength="994.90" waitingTime="11.50" waitingCount="1" stopTime="0.00" timeLoss="37.08" rerouteNo="0" devices="tripinfo_L4-CV-3 emissions_L4-CV-3 ssm_L4-CV-3 toc_L4-CV-3 driverstateL4-CV-3" vType="L4-CV-15" speedFactor="1.12" vaporized="">
        <emissions CO_abs="3960.082908" CO2_abs="283039.452315" HC_abs="23.322656" PMx_abs="4.383637" NOx_abs="106.383970" fuel_abs="121.667464" electricity_abs="0"/>
    </tripinfo>
    <tripinfo id="L2-AV-1" depart="124.20" departLane="bottom-approaching_0" departPos="5.10" departSpeed="0.00" departDelay="0.00" arrival="237.10" arrivalLane="top-exit_1" arrivalPos="486.40" arrivalSpeed="16.59" duration="112.90" routeLength="994.90" waitingTime="19.40" waitingCount="1" stopTime="0.00" timeLoss="52.82" rerouteNo="0" devices="tripinfo_L2-AV-1 emissions_L2-AV-1 ssm_L2-AV-1 toc_L2-AV-1 driverstateL2-AV-1" vType="L2-AV-56" speedFactor="1.00" vaporized="">
        <emissions CO_abs="2803.609955" CO2_abs="200484.690345" HC_abs="16.015335" PMx_abs="3.000529" NOx_abs="75.894824" fuel_abs="86.180379" electricity_abs="0"/>
    </tripinfo>
    <tripinfo id="L4-AV-0" depart="120.00" departLane="bottom-approaching_0" departPos="5.10" departSpeed="0.00" departDelay="0.00" arrival="239.30" arrivalLane="top-exit_0" arrivalPos="486.40" arrivalSpeed="13.99" duration="119.30" routeLength="994.90" waitingTime="36.50" waitingCount="1" stopTime="0.00" timeLoss="48.11" rerouteNo="0" devices="tripinfo_L4-AV-0 emissions_L4-AV-0 ssm_L4-AV-0 toc_L4-AV-0 driverstateL4-AV-0" vType="L4-AV-74" speedFactor="0.84" vaporized="">
        <emissions CO_abs="8133.550589" CO2_abs="326944.345074" HC_abs="42.776551" PMx_abs="4.920836" NOx_abs="125.067963" fuel_abs="140.543346" electricity_abs="0"/>
    </tripinfo>
    <tripinfo id="L4-CV-1" depart="128.40" departLane="bottom-approaching_0" departPos="5.10" departSpeed="0.00" departDelay="0.00" arrival="241.00" arrivalLane="top-exit_0" arrivalPos="486.40" arrivalSpeed="16.26" duration="112.60" routeLength="994.90" waitingTime="18.70" waitingCount="1" stopTime="0.00" timeLoss="51.27" rerouteNo="0" devices="tripinfo_L4-CV-1 emissions_L4-CV-1 ssm_L4-CV-1 toc_L4-CV-1 driverstateL4-CV-1" vType="L4-CV-89" speedFactor="0.98" vaporized="">
        <emissions CO_abs="2938.192507" CO2_abs="218843.378091" HC_abs="17.083859" PMx_abs="3.242689" NOx_abs="82.566623" fuel_abs="94.072033" electricity_abs="0"/>
    </tripinfo>
    <tripinfo id="L4-AV-3" depart="149.10" departLane="top-approaching_0" departPos="5.10" departSpeed="0.00" departDelay="3.90" arrival="242.60" arrivalLane="bottom-exit_0" arrivalPos="486.40" arrivalSpeed="15.01" duration="93.50" routeLength="994.90" waitingTime="0.00" waitingCount="0" stopTime="0.00" timeLoss="27.10" rerouteNo="0" devices="tripinfo_L4-AV-3 emissions_L4-AV-3 ssm_L4-AV-3 toc_L4-AV-3 driverstateL4-AV-3" vType="L4-AV-4" speedFactor="0.90" vaporized="">
        <emissions CO_abs="2604.393960" CO2_abs="236038.804731" HC_abs="15.014858" PMx_abs="2.847621" NOx_abs="84.379110" fuel_abs="101.464081" electricity_abs="0"/>
    </tripinfo>
    <tripinfo id="L4-AV-6" depart="170.40" departLane="bottom-approaching_0" departPos="5.10" departSpeed="0.00" departDelay="0.00" arrival="248.00" arrivalLane="top-exit_0" arrivalPos="486.40" arrivalSpeed="14.25" duration="77.60" routeLength="994.90" waitingTime="0.00" waitingCount="0" stopTime="0.00" timeLoss="7.74" rerouteNo="0" devices="tripinfo_L4-AV-6 emissions_L4-AV-6 ssm_L4-AV-6 toc_L4-AV-6 driverstateL4-AV-6" vType="L4-AV-58" speedFactor="0.85" vaporized="">
        <emissions CO_abs="1619.584543" CO2_abs="216998.779644" HC_abs="10.307583" PMx_abs="2.154490" NOx_abs="74.218061" fuel_abs="93.279600" electricity_abs="0"/>
    </tripinfo>
    <tripinfo id="L2-CV-2" depart="128.40" departLane="top-approaching_0" departPos="5.10" departSpeed="0.00" departDelay="0.00" arrival="248.40" arrivalLane="right-exit_0" arrivalPos="486.40" arrivalSpeed="20.01" duration="120.00" routeLength="992.21" waitingTime="42.10" waitingCount="2" stopTime="0.00" timeLoss="69.56" rerouteNo="0" devices="tripinfo_L2-CV-2 emissions_L2-CV-2 ssm_L2-CV-2 toc_L2-CV-2 driverstateL2-CV-2" vType="L2-CV-0" speedFactor="1.20" vaporized="">
        <emissions CO_abs="11181.985768" CO2_abs="405001.197301" HC_abs="59.256199" PMx_abs="7.614671" NOx_abs="163.141319" fuel_abs="174.096564" electricity_abs="0"/>
    </tripinfo>
</tripinfos>
