<?xml version="1.0" encoding="UTF-8"?>

<!-- generated on 04/01/21 05:36:34 by Eclipse SUMO sumo Version 1.8.0
<configuration xmlns:xsi="http://www.w3.org/2001/XMLSchema-instance" xsi:noNamespaceSchemaLocation="http://sumo.dlr.de/xsd/sumoConfiguration.xsd">

    <input>
        <net-file value="Collision\BaselinePenetration3\../CollisionIntersection.net.xml"/>
        <route-files value="Collision\BaselinePenetration3\../CrashedVehicleRoutes.rou.xml,Collision\BaselinePenetration3\Route-Files/L4-CV-Route.rou.xml,Collision\BaselinePenetration3\Route-Files/L4-AV-Route.rou.xml,Collision\BaselinePenetration3\Route-Files/L2-CV-Route.rou.xml,Collision\BaselinePenetration3\Route-Files/L2-AV-Route.rou.xml,Collision\BaselinePenetration3\Route-Files/L0-HDV-Route.rou.xml"/>
        <additional-files value="Collision\BaselinePenetration3\../Additional-Files/Collision-Detectors.add.xml,Collision\BaselinePenetration3\../Additional-Files/Collision-TMS-Rerouters.add.xml,Collision\BaselinePenetration3\PreparingVehicleModels/Vehicle-Models/L4-CV.add.xml,Collision\BaselinePenetration3\PreparingVehicleModels/Vehicle-Models/L4-CV-Left.add.xml,Collision\BaselinePenetration3\PreparingVehicleModels/Vehicle-Models/L4-CV-Right.add.xml,Collision\BaselinePenetration3\PreparingVehicleModels/Vehicle-Models/L4-AV.add.xml,Collision\BaselinePenetration3\PreparingVehicleModels/Vehicle-Models/L4-AV-Left.add.xml,Collision\BaselinePenetration3\PreparingVehicleModels/Vehicle-Models/L4-AV-Right.add.xml,Collision\BaselinePenetration3\PreparingVehicleModels/Vehicle-Models/L2-CV.add.xml,Collision\BaselinePenetration3\PreparingVehicleModels/Vehicle-Models/L2-CV-Left.add.xml,Collision\BaselinePenetration3\PreparingVehicleModels/Vehicle-Models/L2-CV-Right.add.xml,Collision\BaselinePenetration3\PreparingVehicleModels/Vehicle-Models/L2-AV.add.xml,Collision\BaselinePenetration3\PreparingVehicleModels/Vehicle-Models/L2-AV-Left.add.xml,Collision\BaselinePenetration3\PreparingVehicleModels/Vehicle-Models/L2-AV-Right.add.xml,Collision\BaselinePenetration3\PreparingVehicleModels/Vehicle-Models/L0-HDV.add.xml,Collision\BaselinePenetration3\PreparingVehicleModels/Vehicle-Models/L0-HDV-Left.add.xml,Collision\BaselinePenetration3\PreparingVehicleModels/Vehicle-Models/L0-HDV-Straight.add.xml,Collision\BaselinePenetration3\../Additional-Files/Collision-Traffic-lights.add.xml,Collision\BaselinePenetration3\../Additional-Files/Collision-Traffic-Signs.add.xml"/>
    </input>

    <output>
        <tripinfo-output value="Collision\BaselinePenetration3\Output-Files\TripInfo.xml"/>
    </output>

    <time>
        <begin value="0"/>
        <step-length value="0.1"/>
    </time>

    <processing>
        <ignore-route-errors value="true"/>
        <waiting-time-memory value="300"/>
        <default.action-step-length value="0.1"/>
    </processing>

    <report>
        <no-warnings value="true"/>
    </report>

    <emissions>
        <device.emissions.probability value="1"/>
    </emissions>

    <traci_server>
        <remote-port value="59914"/>
    </traci_server>

    <gui_only>
        <start value="true"/>
        <tracker-interval value="0.1"/>
    </gui_only>

</configuration>
-->

<tripinfos xmlns:xsi="http://www.w3.org/2001/XMLSchema-instance" xsi:noNamespaceSchemaLocation="http://sumo.dlr.de/xsd/tripinfo_file.xsd">
    <tripinfo id="L2-CV-2" depart="128.40" departLane="right-approaching_0" departPos="5.10" departSpeed="0.00" departDelay="0.00" arrival="192.30" arrivalLane="top-exit_0" arrivalPos="486.40" arrivalSpeed="20.01" duration="63.90" routeLength="979.43" waitingTime="0.00" waitingCount="0" stopTime="0.00" timeLoss="14.03" rerouteNo="0" devices="tripinfo_L2-CV-2 emissions_L2-CV-2 ssm_L2-CV-2 toc_L2-CV-2 driverstateL2-CV-2" vType="L2-CV-0" speedFactor="1.20" vaporized="">
        <emissions CO_abs="2727.306170" CO2_abs="261048.281987" HC_abs="17.286980" PMx_abs="4.076279" NOx_abs="96.937830" fuel_abs="112.213621" electricity_abs="0"/>
    </tripinfo>
    <tripinfo id="L2-AV-3" depart="132.60" departLane="left-long-approaching_0" departPos="5.10" departSpeed="0.00" departDelay="0.00" arrival="199.50" arrivalLane="top-exit_0" arrivalPos="486.40" arrivalSpeed="17.19" duration="66.90" routeLength="992.31" waitingTime="0.00" waitingCount="0" stopTime="0.00" timeLoss="8.18" rerouteNo="0" devices="tripinfo_L2-AV-3 emissions_L2-AV-3 ssm_L2-AV-3 toc_L2-AV-3 driverstateL2-AV-3" vType="L2-AV-Left-70" speedFactor="1.03" vaporized="">
        <emissions CO_abs="2133.735412" CO2_abs="238845.594988" HC_abs="12.481632" PMx_abs="3.188624" NOx_abs="85.454054" fuel_abs="102.669807" electricity_abs="0"/>
    </tripinfo>
    <tripinfo id="L2-AV-4" depart="136.80" departLane="left-long-approaching_0" departPos="5.10" departSpeed="0.00" departDelay="0.00" arrival="204.00" arrivalLane="top-exit_0" arrivalPos="486.40" arrivalSpeed="17.68" duration="67.20" routeLength="992.31" waitingTime="0.00" waitingCount="0" stopTime="0.00" timeLoss="10.13" rerouteNo="0" devices="tripinfo_L2-AV-4 emissions_L2-AV-4 ssm_L2-AV-4 toc_L2-AV-4 driverstateL2-AV-4" vType="L2-AV-Left-89" speedFactor="1.06" vaporized="">
        <emissions CO_abs="2211.703895" CO2_abs="238575.844511" HC_abs="13.279094" PMx_abs="3.277363" NOx_abs="86.139856" fuel_abs="102.553849" electricity_abs="0"/>
    </tripinfo>
    <tripinfo id="L4-AV-1" depart="128.40" departLane="left-long-approaching_0" departPos="5.10" departSpeed="0.00" departDelay="0.00" arrival="206.40" arrivalLane="bottom-exit_0" arrivalPos="486.40" arrivalSpeed="13.99" duration="78.00" routeLength="979.53" waitingTime="0.00" waitingCount="0" stopTime="0.00" timeLoss="6.85" rerouteNo="0" devices="tripinfo_L4-AV-1 emissions_L4-AV-1 ssm_L4-AV-1 toc_L4-AV-1 driverstateL4-AV-1" vType="L4-AV-Right-74" speedFactor="0.84" vaporized="">
        <emissions CO_abs="1727.315537" CO2_abs="219967.366662" HC_abs="11.108278" PMx_abs="2.262777" NOx_abs="76.154798" fuel_abs="94.555644" electricity_abs="0"/>
    </tripinfo>
    <tripinfo id="L2-AV-5" depart="141.00" departLane="left-long-approaching_0" departPos="5.10" departSpeed="0.00" departDelay="0.00" arrival="207.00" arrivalLane="top-exit_0" arrivalPos="486.40" arrivalSpeed="17.21" duration="66.00" routeLength="992.31" waitingTime="0.00" waitingCount="0" stopTime="0.00" timeLoss="7.45" rerouteNo="0" devices="tripinfo_L2-AV-5 emissions_L2-AV-5 ssm_L2-AV-5 toc_L2-AV-5 driverstateL2-AV-5" vType="L2-AV-Left-38" speedFactor="1.03" vaporized="">
        <emissions CO_abs="1828.825092" CO2_abs="209921.868301" HC_abs="10.984872" PMx_abs="2.851736" NOx_abs="75.636236" fuel_abs="90.236602" electricity_abs="0"/>
    </tripinfo>
    <tripinfo id="L2-AV-2" depart="128.40" departLane="bottom-approaching_0" departPos="5.10" departSpeed="0.00" departDelay="0.00" arrival="237.30" arrivalLane="right-exit_0" arrivalPos="486.40" arrivalSpeed="16.59" duration="108.90" routeLength="979.43" waitingTime="34.30" waitingCount="1" stopTime="0.00" timeLoss="48.92" rerouteNo="0" devices="tripinfo_L2-AV-2 emissions_L2-AV-2 ssm_L2-AV-2 toc_L2-AV-2 driverstateL2-AV-2" vType="L2-AV-56" speedFactor="1.00" vaporized="">
        <emissions CO_abs="8343.059003" CO2_abs="333577.031183" HC_abs="43.160747" PMx_abs="5.523630" NOx_abs="129.525505" fuel_abs="143.393783" electricity_abs="0"/>
    </tripinfo>
    <tripinfo id="L0-HDV-0" depart="120.00" departLane="bottom-approaching_0" departPos="5.10" departSpeed="0.00" departDelay="0.00" arrival="237.50" arrivalLane="top-exit_0" arrivalPos="486.40" arrivalSpeed="17.23" duration="117.50" routeLength="994.90" waitingTime="44.10" waitingCount="1" stopTime="0.00" timeLoss="60.05" rerouteNo="0" devices="tripinfo_L0-HDV-0 emissions_L0-HDV-0 ssm_L0-HDV-0" vType="L0-HDV-32" speedFactor="1.04" vaporized="">
        <emissions CO_abs="10790.729502" CO2_abs="364245.273465" HC_abs="57.581809" PMx_abs="7.320628" NOx_abs="152.669035" fuel_abs="156.576725" electricity_abs="0"/>
    </tripinfo>
    <tripinfo id="L2-CV-5" depart="143.10" departLane="top-approaching_0" departPos="5.10" departSpeed="0.00" departDelay="2.10" arrival="240.10" arrivalLane="bottom-exit_0" arrivalPos="486.40" arrivalSpeed="15.25" duration="97.00" routeLength="994.90" waitingTime="18.20" waitingCount="1" stopTime="0.00" timeLoss="31.63" rerouteNo="0" devices="tripinfo_L2-CV-5 emissions_L2-CV-5 ssm_L2-CV-5 toc_L2-CV-5 driverstateL2-CV-5" vType="L2-CV-72" speedFactor="0.91" vaporized="">
        <emissions CO_abs="5356.295419" CO2_abs="285707.068938" HC_abs="28.651868" PMx_abs="4.053624" NOx_abs="106.485976" fuel_abs="122.815563" electricity_abs="0"/>
    </tripinfo>
    <tripinfo id="L2-CV-10" depart="162.00" departLane="top-approaching_0" departPos="5.10" departSpeed="0.00" departDelay="0.00" arrival="240.80" arrivalLane="bottom-exit_1" arrivalPos="486.40" arrivalSpeed="17.60" duration="78.80" routeLength="994.90" waitingTime="0.00" waitingCount="0" stopTime="0.00" timeLoss="22.18" rerouteNo="0" devices="tripinfo_L2-CV-10 emissions_L2-CV-10 ssm_L2-CV-10 toc_L2-CV-10 driverstateL2-CV-10" vType="L2-CV-19" speedFactor="1.06" vaporized="">
        <emissions CO_abs="2747.032893" CO2_abs="251593.503949" HC_abs="16.503841" PMx_abs="3.555415" NOx_abs="92.326898" fuel_abs="108.149832" electricity_abs="0"/>
    </tripinfo>
    <tripinfo id="L4-AV-4" depart="153.60" departLane="top-approaching_0" departPos="5.10" departSpeed="0.00" departDelay="0.00" arrival="241.50" arrivalLane="bottom-exit_0" arrivalPos="486.40" arrivalSpeed="17.00" duration="87.90" routeLength="994.90" waitingTime="0.00" waitingCount="0" stopTime="0.00" timeLoss="29.23" rerouteNo="0" devices="tripinfo_L4-AV-4 emissions_L4-AV-4 ssm_L4-AV-4 toc_L4-AV-4 driverstateL4-AV-4" vType="L4-AV-30" speedFactor="1.02" vaporized="">
        <emissions CO_abs="2545.633777" CO2_abs="183756.749886" HC_abs="15.107371" PMx_abs="2.916030" NOx_abs="71.027512" fuel_abs="78.989489" electricity_abs="0"/>
    </tripinfo>
    <tripinfo id="L2-AV-8" depart="153.60" departLane="bottom-approaching_0" departPos="5.10" departSpeed="0.00" departDelay="0.00" arrival="241.80" arrivalLane="right-exit_0" arrivalPos="486.40" arrivalSpeed="16.81" duration="88.20" routeLength="979.43" waitingTime="0.00" waitingCount="0" stopTime="0.00" timeLoss="28.91" rerouteNo="0" devices="tripinfo_L2-AV-8 emissions_L2-AV-8 ssm_L2-AV-8 toc_L2-AV-8 driverstateL2-AV-8" vType="L2-AV-97" speedFactor="1.01" vaporized="">
        <emissions CO_abs="2921.924480" CO2_abs="249539.117579" HC_abs="17.047733" PMx_abs="3.422603" NOx_abs="91.486808" fuel_abs="107.266962" electricity_abs="0"/>
    </tripinfo>
    <tripinfo id="L2-AV-12" depart="170.40" departLane="bottom-approaching_0" departPos="5.10" departSpeed="0.00" departDelay="0.00" arrival="242.10" arrivalLane="top-exit_0" arrivalPos="486.40" arrivalSpeed="16.86" duration="71.70" routeLength="994.90" waitingTime="0.00" waitingCount="0" stopTime="0.00" timeLoss="12.61" rerouteNo="0" devices="tripinfo_L2-AV-12 emissions_L2-AV-12 ssm_L2-AV-12 toc_L2-AV-12 driverstateL2-AV-12" vType="L2-AV-0" speedFactor="1.01" vaporized="">
        <emissions CO_abs="2164.636864" CO2_abs="237797.948338" HC_abs="13.064666" PMx_abs="3.002296" NOx_abs="84.502957" fuel_abs="102.219803" electricity_abs="0"/>
    </tripinfo>
    <tripinfo id="L2-CV-13" depart="174.60" departLane="bottom-approaching_0" departPos="5.10" departSpeed="0.00" departDelay="0.00" arrival="243.80" arrivalLane="top-exit_0" arrivalPos="486.40" arrivalSpeed="16.79" duration="69.20" routeLength="994.90" waitingTime="0.00" waitingCount="0" stopTime="0.00" timeLoss="9.85" rerouteNo="0" devices="tripinfo_L2-CV-13 emissions_L2-CV-13 ssm_L2-CV-13 toc_L2-CV-13 driverstateL2-CV-13" vType="L2-CV-8" speedFactor="1.01" vaporized="">
        <emissions CO_abs="1818.118572" CO2_abs="227301.642400" HC_abs="11.322342" PMx_abs="2.841854" NOx_abs="80.307078" fuel_abs="97.707713" electricity_abs="0"/>
    </tripinfo>
    <tripinfo id="L2-CV-11" depart="166.20" departLane="top-approaching_0" departPos="5.10" departSpeed="0.00" departDelay="0.00" arrival="244.90" arrivalLane="bottom-exit_0" arrivalPos="486.40" arrivalSpeed="16.42" duration="78.70" routeLength="994.90" waitingTime="0.00" waitingCount="0" stopTime="0.00" timeLoss="17.97" rerouteNo="0" devices="tripinfo_L2-CV-11 emissions_L2-CV-11 ssm_L2-CV-11 toc_L2-CV-11 driverstateL2-CV-11" vType="L2-CV-85" speedFactor="0.98" vaporized="">
        <emissions CO_abs="2701.551072" CO2_abs="251384.579270" HC_abs="16.083908" PMx_abs="3.257816" NOx_abs="90.705494" fuel_abs="108.060371" electricity_abs="0"/>
    </tripinfo>
    <tripinfo id="L4-AV-7" depart="178.80" departLane="bottom-approaching_0" departPos="5.10" departSpeed="0.00" departDelay="0.00" arrival="250.80" arrivalLane="top-exit_0" arrivalPos="486.40" arrivalSpeed="15.01" duration="72.00" routeLength="994.90" waitingTime="0.00" waitingCount="0" stopTime="0.00" timeLoss="5.68" rerouteNo="0" devices="tripinfo_L4-AV-7 emissions_L4-AV-7 ssm_L4-AV-7 toc_L4-AV-7 driverstateL4-AV-7" vType="L4-AV-57" speedFactor="0.90" vaporized="">
        <emissions CO_abs="1328.401955" CO2_abs="204411.072250" HC_abs="8.241073" PMx_abs="2.077580" NOx_abs="69.399515" fuel_abs="87.868350" electricity_abs="0"/>
    </tripinfo>
    <tripinfo id="L4-CV-2" depart="136.80" departLane="top-approaching_0" departPos="5.10" departSpeed="0.00" departDelay="0.00" arrival="253.30" arrivalLane="right-exit_0" arrivalPos="486.40" arrivalSpeed="16.26" duration="116.50" routeLength="992.21" waitingTime="39.80" waitingCount="2" stopTime="0.00" timeLoss="54.42" rerouteNo="0" devices="tripinfo_L4-CV-2 emissions_L4-CV-2 ssm_L4-CV-2 toc_L4-CV-2 driverstateL4-CV-2" vType="L4-CV-89" speedFactor="0.98" vaporized="">
        <emissions CO_abs="9323.161032" CO2_abs="353078.284934" HC_abs="47.837039" PMx_abs="5.940687" NOx_abs="137.962627" fuel_abs="151.776971" electricity_abs="0"/>
    </tripinfo>
    <tripinfo id="L2-CV-4" depart="139.80" departLane="top-approaching_0" departPos="5.10" departSpeed="0.00" departDelay="3.00" arrival="258.90" arrivalLane="right-exit_0" arrivalPos="486.40" arrivalSpeed="14.71" duration="119.10" routeLength="992.21" waitingTime="23.00" waitingCount="48" stopTime="0.00" timeLoss="50.64" rerouteNo="0" devices="tripinfo_L2-CV-4 emissions_L2-CV-4 ssm_L2-CV-4 toc_L2-CV-4 driverstateL2-CV-4" vType="L2-CV-20" speedFactor="0.88" vaporized="">
        <emissions CO_abs="6159.742100" CO2_abs="300970.355217" HC_abs="32.995837" PMx_abs="4.326987" NOx_abs="113.333476" fuel_abs="129.377084" electricity_abs="0"/>
    </tripinfo>
    <tripinfo id="L2-AV-10" depart="164.80" departLane="top-approaching_0" departPos="5.10" departSpeed="0.00" departDelay="2.80" arrival="262.80" arrivalLane="right-exit_1" arrivalPos="486.40" arrivalSpeed="17.29" duration="98.00" routeLength="992.21" waitingTime="0.90" waitingCount="1" stopTime="0.00" timeLoss="39.65" rerouteNo="0" devices="tripinfo_L2-AV-10 emissions_L2-AV-10 ssm_L2-AV-10 toc_L2-AV-10 driverstateL2-AV-10" vType="L2-AV-23" speedFactor="1.04" vaporized="">
        <emissions CO_abs="3817.059467" CO2_abs="269613.916335" HC_abs="21.565186" PMx_abs="3.985709" NOx_abs="100.953729" fuel_abs="115.896444" electricity_abs="0"/>
    </tripinfo>
    <tripinfo id="L2-AV-17" depart="191.40" departLane="bottom-approaching_0" departPos="5.10" departSpeed="0.00" departDelay="0.00" arrival="263.00" arrivalLane="right-exit_0" arrivalPos="486.40" arrivalSpeed="15.61" duration="71.60" routeLength="979.43" waitingTime="0.00" waitingCount="0" stopTime="0.00" timeLoss="7.86" rerouteNo="0" devices="tripinfo_L2-AV-17 emissions_L2-AV-17 ssm_L2-AV-17 toc_L2-AV-17 driverstateL2-AV-17" vType="L2-AV-52" speedFactor="0.94" vaporized="">
        <emissions CO_abs="1863.251859" CO2_abs="223096.486489" HC_abs="11.069316" PMx_abs="2.613750" NOx_abs="78.313019" fuel_abs="95.900298" electricity_abs="0"/>
    </tripinfo>
    <tripinfo id="L2-AV-16" depart="190.20" departLane="top-approaching_0" departPos="5.10" departSpeed="0.00" departDelay="3.00" arrival="266.30" arrivalLane="right-exit_1" arrivalPos="486.40" arrivalSpeed="18.57" duration="76.10" routeLength="992.21" waitingTime="0.00" waitingCount="0" stopTime="0.00" timeLoss="21.74" rerouteNo="0" devices="tripinfo_L2-AV-16 emissions_L2-AV-16 ssm_L2-AV-16 toc_L2-AV-16 driverstateL2-AV-16" vType="L2-AV-3" speedFactor="1.11" vaporized="">
        <emissions CO_abs="2667.743826" CO2_abs="201529.796194" HC_abs="15.883137" PMx_abs="3.207614" NOx_abs="77.433134" fuel_abs="86.629301" electricity_abs="0"/>
    </tripinfo>
    <tripinfo id="L4-CV-8" depart="187.20" departLane="top-approaching_0" departPos="5.10" departSpeed="0.00" departDelay="0.00" arrival="266.90" arrivalLane="right-exit_0" arrivalPos="486.40" arrivalSpeed="15.61" duration="79.70" routeLength="992.21" waitingTime="0.00" waitingCount="0" stopTime="0.00" timeLoss="15.10" rerouteNo="0" devices="tripinfo_L4-CV-8 emissions_L4-CV-8 ssm_L4-CV-8 toc_L4-CV-8 driverstateL4-CV-8" vType="L4-CV-81" speedFactor="0.94" vaporized="">
        <emissions CO_abs="2553.912281" CO2_abs="245139.509154" HC_abs="14.946551" PMx_abs="3.075073" NOx_abs="88.041860" fuel_abs="105.375856" electricity_abs="0"/>
    </tripinfo>
    <tripinfo id="L2-AV-19" depart="199.80" departLane="top-approaching_0" departPos="5.10" departSpeed="0.00" departDelay="0.00" arrival="278.80" arrivalLane="right-exit_0" arrivalPos="486.40" arrivalSpeed="14.78" duration="79.00" routeLength="992.21" waitingTime="0.00" waitingCount="0" stopTime="0.00" timeLoss="10.79" rerouteNo="0" devices="tripinfo_L2-AV-19 emissions_L2-AV-19 ssm_L2-AV-19 toc_L2-AV-19 driverstateL2-AV-19" vType="L2-AV-54" speedFactor="0.89" vaporized="">
        <emissions CO_abs="2280.038339" CO2_abs="236927.256605" HC_abs="13.886217" PMx_abs="2.808303" NOx_abs="84.669640" fuel_abs="101.845817" electricity_abs="0"/>
    </tripinfo>
    <tripinfo id="L4-AV-10" depart="204.00" departLane="left-long-approaching_0" departPos="5.10" departSpeed="0.00" departDelay="0.00" arrival="287.70" arrivalLane="right-exit_0" arrivalPos="486.40" arrivalSpeed="17.30" duration="83.70" routeLength="995.23" waitingTime="13.30" waitingCount="1" stopTime="0.00" timeLoss="26.09" rerouteNo="0" devices="tripinfo_L4-AV-10 emissions_L4-AV-10 ssm_L4-AV-10 toc_L4-AV-10 driverstateL4-AV-10" vType="L4-AV-28" speedFactor="1.04" vaporized="">
        <emissions CO_abs="4576.453099" CO2_abs="277932.843704" HC_abs="24.808245" PMx_abs="4.254483" NOx_abs="104.141048" fuel_abs="119.472771" electricity_abs="0"/>
    </tripinfo>
    <tripinfo id="L2-CV-9" depart="157.80" departLane="left-long-approaching_0" departPos="5.10" departSpeed="0.00" departDelay="0.00" arrival="288.60" arrivalLane="top-exit_0" arrivalPos="486.40" arrivalSpeed="16.22" duration="130.80" routeLength="992.31" waitingTime="59.20" waitingCount="1" stopTime="0.00" timeLoss="68.65" rerouteNo="0" devices="tripinfo_L2-CV-9 emissions_L2-CV-9 ssm_L2-CV-9 toc_L2-CV-9 driverstateL2-CV-9" vType="L2-CV-Left-11" speedFactor="0.97" vaporized="">
        <emissions CO_abs="11936.945632" CO2_abs="392958.524500" HC_abs="60.758696" PMx_abs="6.942993" NOx_abs="156.048177" fuel_abs="168.921069" electricity_abs="0"/>
    </tripinfo>
    <tripinfo id="L2-CV-6" depart="145.20" departLane="left-long-approaching_0" departPos="5.10" departSpeed="0.00" departDelay="0.00" arrival="289.30" arrivalLane="bottom-exit_0" arrivalPos="486.40" arrivalSpeed="17.04" duration="144.10" routeLength="979.53" waitingTime="68.60" waitingCount="1" stopTime="0.00" timeLoss="85.61" rerouteNo="0" devices="tripinfo_L2-CV-6 emissions_L2-CV-6 ssm_L2-CV-6 toc_L2-CV-6 driverstateL2-CV-6" vType="L2-CV-Right-15" speedFactor="1.02" vaporized="">
        <emissions CO_abs="14088.503211" CO2_abs="426760.789827" HC_abs="71.977086" PMx_abs="7.934685" NOx_abs="172.721402" fuel_abs="183.452087" electricity_abs="0"/>
    </tripinfo>
    <tripinfo id="L2-CV-21" depart="209.80" departLane="left-long-approaching_0" departPos="5.10" departSpeed="0.00" departDelay="1.60" arrival="292.00" arrivalLane="bottom-exit_0" arrivalPos="486.40" arrivalSpeed="17.38" duration="82.20" routeLength="979.53" waitingTime="0.90" waitingCount="9" stopTime="0.00" timeLoss="24.89" rerouteNo="0" devices="tripinfo_L2-CV-21 emissions_L2-CV-21 ssm_L2-CV-21 toc_L2-CV-21 driverstateL2-CV-21" vType="L2-CV-Right-1" speedFactor="1.04" vaporized="">
        <emissions CO_abs="3875.666011" CO2_abs="271322.442753" HC_abs="22.227202" PMx_abs="3.959285" NOx_abs="100.956381" fuel_abs="116.631085" electricity_abs="0"/>
    </tripinfo>
    <tripinfo id="L2-CV-23" depart="216.60" departLane="left-long-approaching_0" departPos="5.10" departSpeed="0.00" departDelay="0.00" arrival="293.80" arrivalLane="right-exit_1" arrivalPos="486.40" arrivalSpeed="17.04" duration="77.20" routeLength="995.23" waitingTime="0.10" waitingCount="1" stopTime="0.00" timeLoss="18.70" rerouteNo="0" devices="tripinfo_L2-CV-23 emissions_L2-CV-23 ssm_L2-CV-23 toc_L2-CV-23 driverstateL2-CV-23" vType="L2-CV-94" speedFactor="1.02" vaporized="">
        <emissions CO_abs="2845.722612" CO2_abs="255735.592854" HC_abs="17.074443" PMx_abs="3.446462" NOx_abs="93.111744" fuel_abs="109.930629" electricity_abs="0"/>
    </tripinfo>
    <tripinfo id="L0-HDV-7" depart="206.90" departLane="left-long-approaching_0" departPos="5.10" departSpeed="0.00" departDelay="2.90" arrival="295.20" arrivalLane="right-exit_0" arrivalPos="486.40" arrivalSpeed="14.02" duration="88.30" routeLength="995.23" waitingTime="6.20" waitingCount="1" stopTime="0.00" timeLoss="17.26" rerouteNo="0" devices="tripinfo_L0-HDV-7 emissions_L0-HDV-7 ssm_L0-HDV-7" vType="L0-HDV-Straight-60" speedFactor="0.84" vaporized="">
        <emissions CO_abs="3064.109585" CO2_abs="178496.330465" HC_abs="17.745025" PMx_abs="2.702335" NOx_abs="68.759592" fuel_abs="76.728974" electricity_abs="0"/>
    </tripinfo>
    <tripinfo id="L2-CV-16" depart="187.20" departLane="left-long-approaching_0" departPos="5.10" departSpeed="0.00" departDelay="0.00" arrival="295.50" arrivalLane="top-exit_1" arrivalPos="486.40" arrivalSpeed="17.24" duration="108.30" routeLength="992.31" waitingTime="28.20" waitingCount="24" stopTime="0.00" timeLoss="49.89" rerouteNo="0" devices="tripinfo_L2-CV-16 emissions_L2-CV-16 ssm_L2-CV-16 toc_L2-CV-16 driverstateL2-CV-16" vType="L2-CV-Left-74" speedFactor="1.03" vaporized="">
        <emissions CO_abs="5908.283280" CO2_abs="304612.661007" HC_abs="31.919258" PMx_abs="4.893207" NOx_abs="116.446373" fuel_abs="130.941863" electricity_abs="0"/>
    </tripinfo>
    <tripinfo id="L0-HDV-3" depart="156.00" departLane="right-approaching_0" departPos="5.10" departSpeed="0.00" departDelay="0.00" arrival="295.50" arrivalLane="top-exit_0" arrivalPos="486.40" arrivalSpeed="14.67" duration="139.50" routeLength="979.43" waitingTime="54.00" waitingCount="1" stopTime="0.00" timeLoss="71.80" rerouteNo="0" devices="tripinfo_L0-HDV-3 emissions_L0-HDV-3 ssm_L0-HDV-3" vType="L0-HDV-14" speedFactor="0.88" vaporized="">
        <emissions CO_abs="12440.329266" CO2_abs="368994.663026" HC_abs="65.162409" PMx_abs="7.133185" NOx_abs="153.941728" fuel_abs="158.619949" electricity_abs="0"/>
    </tripinfo>
    <tripinfo id="L2-CV-19" depart="199.80" departLane="right-approaching_0" departPos="5.10" departSpeed="0.00" departDelay="0.00" arrival="296.70" arrivalLane="top-exit_1" arrivalPos="486.40" arrivalSpeed="18.42" duration="96.90" routeLength="979.43" waitingTime="12.50" waitingCount="16" stopTime="0.00" timeLoss="44.85" rerouteNo="0" devices="tripinfo_L2-CV-19 emissions_L2-CV-19 ssm_L2-CV-19 toc_L2-CV-19 driverstateL2-CV-19" vType="L2-CV-79" speedFactor="1.15" vaporized="">
        <emissions CO_abs="5541.252609" CO2_abs="279988.068121" HC_abs="31.233063" PMx_abs="4.730354" NOx_abs="110.029193" fuel_abs="120.356495" electricity_abs="0"/>
    </tripinfo>
    <tripinfo id="L4-CV-7" depart="178.80" departLane="right-approaching_0" departPos="5.10" departSpeed="0.00" departDelay="0.00" arrival="297.20" arrivalLane="top-exit_0" arrivalPos="486.40" arrivalSpeed="14.64" duration="118.40" routeLength="979.43" waitingTime="30.70" waitingCount="1" stopTime="0.00" timeLoss="50.57" rerouteNo="0" devices="tripinfo_L4-CV-7 emissions_L4-CV-7 ssm_L4-CV-7 toc_L4-CV-7 driverstateL4-CV-7" vType="L4-CV-22" speedFactor="0.88" vaporized="">
        <emissions CO_abs="6185.327645" CO2_abs="299315.424185" HC_abs="33.223454" PMx_abs="4.258416" NOx_abs="112.459562" fuel_abs="128.665828" electricity_abs="0"/>
    </tripinfo>
    <tripinfo id="L4-AV-11" depart="212.40" departLane="right-approaching_0" departPos="5.10" departSpeed="0.00" departDelay="0.00" arrival="299.80" arrivalLane="top-exit_0" arrivalPos="486.40" arrivalSpeed="18.14" duration="87.40" routeLength="979.43" waitingTime="0.10" waitingCount="1" stopTime="0.00" timeLoss="32.48" rerouteNo="0" devices="tripinfo_L4-AV-11 emissions_L4-AV-11 ssm_L4-AV-11 toc_L4-AV-11 driverstateL4-AV-11" vType="L4-AV-14" speedFactor="1.09" vaporized="">
        <emissions CO_abs="3519.161885" CO2_abs="230489.940917" HC_abs="20.785970" PMx_abs="3.602312" NOx_abs="89.244891" fuel_abs="99.078553" electricity_abs="0"/>
    </tripinfo>
    <tripinfo id="L2-AV-27" depart="233.40" departLane="left-long-approaching_0" departPos="5.10" departSpeed="0.00" departDelay="0.00" arrival="302.10" arrivalLane="bottom-exit_0" arrivalPos="486.40" arrivalSpeed="19.65" duration="68.70" routeLength="979.53" waitingTime="0.10" waitingCount="1" stopTime="0.00" timeLoss="18.04" rerouteNo="0" devices="tripinfo_L2-AV-27 emissions_L2-AV-27 ssm_L2-AV-27 toc_L2-AV-27 driverstateL2-AV-27" vType="L2-AV-Right-33" speedFactor="1.18" vaporized="">
        <emissions CO_abs="2587.665380" CO2_abs="253307.387131" HC_abs="16.536461" PMx_abs="3.753945" NOx_abs="94.049930" fuel_abs="108.886277" electricity_abs="0"/>
    </tripinfo>
    <tripinfo id="L0-HDV-1" depart="132.00" departLane="top-approaching_0" departPos="5.10" departSpeed="0.00" departDelay="0.00" arrival="304.30" arrivalLane="left-exit_1" arrivalPos="410.00" arrivalSpeed="17.49" duration="172.30" routeLength="979.53" waitingTime="85.10" waitingCount="9" stopTime="0.00" timeLoss="115.44" rerouteNo="0" devices="tripinfo_L0-HDV-1 emissions_L0-HDV-1 ssm_L0-HDV-1" vType="L0-HDV-37@L0-HDV-1" speedFactor="1.05" vaporized="">
        <emissions CO_abs="17850.359457" CO2_abs="453339.008798" HC_abs="91.740447" PMx_abs="9.553025" NOx_abs="193.820184" fuel_abs="194.878119" electricity_abs="0"/>
    </tripinfo>
    <tripinfo id="L4-CV-12" depart="220.80" departLane="left-long-approaching_0" departPos="5.10" departSpeed="0.00" departDelay="0.00" arrival="304.70" arrivalLane="top-exit_1" arrivalPos="486.40" arrivalSpeed="16.97" duration="83.90" routeLength="992.31" waitingTime="0.10" waitingCount="1" stopTime="0.00" timeLoss="24.43" rerouteNo="0" devices="tripinfo_L4-CV-12 emissions_L4-CV-12 ssm_L4-CV-12 toc_L4-CV-12 driverstateL4-CV-12" vType="L4-CV-Left-59" speedFactor="1.02" vaporized="">
        <emissions CO_abs="3293.811772" CO2_abs="263919.124154" HC_abs="19.377667" PMx_abs="3.618633" NOx_abs="96.974840" fuel_abs="113.448593" electricity_abs="0"/>
    </tripinfo>
    <tripinfo id="L2-AV-18" depart="195.60" departLane="left-long-approaching_0" departPos="5.10" departSpeed="0.00" departDelay="0.00" arrival="310.20" arrivalLane="top-exit_0" arrivalPos="486.40" arrivalSpeed="12.23" duration="114.60" routeLength="992.31" waitingTime="0.00" waitingCount="0" stopTime="0.00" timeLoss="32.11" rerouteNo="0" devices="tripinfo_L2-AV-18 emissions_L2-AV-18 ssm_L2-AV-18 toc_L2-AV-18 driverstateL2-AV-18" vType="L2-AV-Left-42" speedFactor="0.73" vaporized="">
        <emissions CO_abs="2702.465179" CO2_abs="235527.958717" HC_abs="17.586511" PMx_abs="2.552663" NOx_abs="84.297171" fuel_abs="101.245233" electricity_abs="0"/>
    </tripinfo>
    <tripinfo id="L4-AV-14" depart="237.60" departLane="left-long-approaching_0" departPos="5.10" departSpeed="0.00" departDelay="0.00" arrival="313.90" arrivalLane="bottom-exit_0" arrivalPos="486.40" arrivalSpeed="14.62" duration="76.30" routeLength="979.53" waitingTime="0.00" waitingCount="0" stopTime="0.00" timeLoss="8.24" rerouteNo="0" devices="tripinfo_L4-AV-14 emissions_L4-AV-14 ssm_L4-AV-14 toc_L4-AV-14 driverstateL4-AV-14" vType="L4-AV-Right-84" speedFactor="0.88" vaporized="">
        <emissions CO_abs="1862.683881" CO2_abs="218582.829498" HC_abs="11.407628" PMx_abs="2.424851" NOx_abs="76.626079" fuel_abs="93.960297" electricity_abs="0"/>
    </tripinfo>
    <tripinfo id="L2-CV-3" depart="132.60" departLane="bottom-approaching_0" departPos="5.10" departSpeed="0.00" departDelay="0.00" arrival="315.90" arrivalLane="left-exit_0" arrivalPos="410.00" arrivalSpeed="16.45" duration="183.30" routeLength="992.31" waitingTime="97.70" waitingCount="4" stopTime="0.00" timeLoss="122.09" rerouteNo="0" devices="tripinfo_L2-CV-3 emissions_L2-CV-3 ssm_L2-CV-3 toc_L2-CV-3 driverstateL2-CV-3" vType="L2-CV-48@L2-CV-3" speedFactor="0.99" vaporized="">
        <emissions CO_abs="17872.827823" CO2_abs="492679.896197" HC_abs="90.686014" PMx_abs="9.489309" NOx_abs="202.511149" fuel_abs="211.789624" electricity_abs="0"/>
    </tripinfo>
    <tripinfo id="L4-CV-5" depart="162.00" departLane="right-approaching_0" departPos="5.10" departSpeed="0.00" departDelay="0.00" arrival="316.40" arrivalLane="bottom-exit_0" arrivalPos="486.40" arrivalSpeed="16.52" duration="154.40" routeLength="992.21" waitingTime="71.50" waitingCount="2" stopTime="0.00" timeLoss="93.32" rerouteNo="0" devices="tripinfo_L4-CV-5 emissions_L4-CV-5 ssm_L4-CV-5 toc_L4-CV-5 driverstateL4-CV-5" vType="L4-CV-12" speedFactor="0.99" vaporized="">
        <emissions CO_abs="15328.605675" CO2_abs="451989.621039" HC_abs="77.962183" PMx_abs="8.333669" NOx_abs="183.093241" fuel_abs="194.297605" electricity_abs="0"/>
    </tripinfo>