<additional xmlns:xsi="http://www.w3.org/2001/XMLSchema-instance" xsi:noNamespaceSchemaLocation="http://sumo.dlr.de/xsd/additional_file.xsd">
    
    
    
    
    
    
    
    
    
    
    
    
    
    
    
    
    
    
    
    
    
    
    
    
    
    
    
    
    
    
    
    
    
    
    
    
    
    
    
    
    
    
    
    
    
    
    
    
    
    
    
    
    
    
    
    
    
    
    
    
    
    
    
    
    
    
    
    
    
    
    
    
    
    
    
    
    
    
    
    
    
    
    
    
    
    
    
    
    
    
    
    
    
    
    
    
    
    
    
    
    
    
    
    
    
    
    
    
    
    
    
    
    
    
    
    
    
    
    
    
    
    
    
    
    
    
    
    
    
    
    
    
    
    
    
    
    
    
    
    
    
    
    
    
    
    
    
    
    
    
    
    
    
    
    
    
    
    
    
    
    
    
    
    
    
    
    
    
    
    
    
    
    
    
    
    
    
    
    
    
    
    
    
    
    
    
    
    
    
    
    
    
    
    
    
    
    
    
    
    
    
    
    
    
    
    
    
    
    
    
    
    
    
    
    
    
    
    
    
    
    
    
    
    
    
    
    
    
    
    
    
    
    
    
    
    
    
    
    
    
    
    
    
    
    
    
    
    
    
    
    
    
    
    
    
    
    
    
    
    
    
    
    
    
    
    
    
    
    
    
    
    
    
    
    
    
    
    
    
    
    
    
    
    
    
    
    
    
    
    
    
    
    
    
    
    
    
    
    
    
    
    
    
    
    
    
    
    
    
    
    
    
    <vTypeDistribution id="L4-CV-Straight">
        <vType id="L4-CV-Straight0" carFollowModel="CACC" color="yellow" vClass="passenger" tau="0.600" decel="3.245" accel="1.003" emergencyDecel="9.000" actionStepLength="0.100" lcAssertive="0.875">
            <param key="has.toc.device" value="true"/>
            <param key="device.toc.automatedType" value="L4-CV-Straight"/>
            <param key="device.toc.manualType" value="L0-HDV"/>
            <param key="device.toc.reponseTime" value="5.217"/>
            <param key="device.toc.initialAwareness" value="0.206"/>
            <param key="device.toc.recoveryRate" value="0.307"/>
            <param key="device.toc.tauCACCtoACC" value="1.266"/>
            <param key="device.toc.ogNewTimeHeadway" value="1.600"/>
            <param key="device.toc.ogChangeRate" value="0.800"/>
            <param key="device.toc.mrmDecel" value="3.000"/>
            <param key="device.toc.useColorScheme" value="true"/>
            <param key="device.toc.dynamicToCThreshold" value="11.869"/>
            <param key="device.toc.dynamicMRMProbability" value="0.050"/>
            <param key="device.toc.device.toc.file" value="Output-Files/ToC.xml"/>
            <param key="has.ssm.device" value="true"/>
            <param key="device.ssm.measures" value="TTC"/>
            <param key="device.ssm.thresholds" value="3.000"/>
            <param key="device.ssm.range" value="50.000"/>
            <param key="device.ssm.extratime" value="5.000"/>
            <param key="device.ssm.file" value="Output-Files\L4-CV.xml"/>
            <param key="device.ssm.trajectories" value="false"/>
            <param key="device.ssm.geo" value="false"/>
        </vType>
        <vType id="L4-CV-Straight1" carFollowModel="CACC" color="yellow" vClass="passenger" tau="0.600" decel="2.675" accel="1.035" emergencyDecel="9.000" actionStepLength="0.100" lcAssertive="0.880">
            <param key="has.toc.device" value="true"/>
            <param key="device.toc.automatedType" value="L4-CV-Straight"/>
            <param key="device.toc.manualType" value="L0-HDV"/>
            <param key="device.toc.reponseTime" value="8.510"/>
            <param key="device.toc.initialAwareness" value="0.542"/>
            <param key="device.toc.recoveryRate" value="0.184"/>
            <param key="device.toc.tauCACCtoACC" value="1.312"/>
            <param key="device.toc.ogNewTimeHeadway" value="1.600"/>
            <param key="device.toc.ogChangeRate" value="0.800"/>
            <param key="device.toc.mrmDecel" value="3.000"/>
            <param key="device.toc.useColorScheme" value="true"/>
            <param key="device.toc.dynamicToCThreshold" value="10.526"/>
            <param key="device.toc.dynamicMRMProbability" value="0.050"/>
            <param key="device.toc.device.toc.file" value="Output-Files/ToC.xml"/>
            <param key="has.ssm.device" value="true"/>
            <param key="device.ssm.measures" value="TTC"/>
            <param key="device.ssm.thresholds" value="3.000"/>
            <param key="device.ssm.range" value="50.000"/>
            <param key="device.ssm.extratime" value="5.000"/>
            <param key="device.ssm.file" value="Output-Files\L4-CV.xml"/>
            <param key="device.ssm.trajectories" value="false"/>
            <param key="device.ssm.geo" value="false"/>
        </vType>
        <vType id="L4-CV-Straight2" carFollowModel="CACC" color="yellow" vClass="passenger" tau="0.600" decel="3.366" accel="1.218" emergencyDecel="9.000" actionStepLength="0.100" lcAssertive="0.863">
            <param key="has.toc.device" value="true"/>
            <param key="device.toc.automatedType" value="L4-CV-Straight"/>
            <param key="device.toc.manualType" value="L0-HDV"/>
            <param key="device.toc.reponseTime" value="1.230"/>
            <param key="device.toc.initialAwareness" value="0.217"/>
            <param key="device.toc.recoveryRate" value="0.281"/>
            <param key="device.toc.tauCACCtoACC" value="1.414"/>
            <param key="device.toc.ogNewTimeHeadway" value="1.600"/>
            <param key="device.toc.ogChangeRate" value="0.800"/>
            <param key="device.toc.mrmDecel" value="3.000"/>
            <param key="device.toc.useColorScheme" value="true"/>
            <param key="device.toc.dynamicToCThreshold" value="11.471"/>
            <param key="device.toc.dynamicMRMProbability" value="0.050"/>
            <param key="device.toc.device.toc.file" value="Output-Files/ToC.xml"/>
            <param key="has.ssm.device" value="true"/>
            <param key="device.ssm.measures" value="TTC"/>
            <param key="device.ssm.thresholds" value="3.000"/>
            <param key="device.ssm.range" value="50.000"/>
            <param key="device.ssm.extratime" value="5.000"/>
            <param key="device.ssm.file" value="Output-Files\L4-CV.xml"/>
            <param key="device.ssm.trajectories" value="false"/>
            <param key="device.ssm.geo" value="false"/>
        </vType>
        <vType id="L4-CV-Straight3" carFollowModel="CACC" color="yellow" vClass="passenger" tau="0.600" decel="3.441" accel="0.965" emergencyDecel="9.000" actionStepLength="0.100" lcAssertive="0.853">
            <param key="has.toc.device" value="true"/>
            <param key="device.toc.automatedType" value="L4-CV-Straight"/>
            <param key="device.toc.manualType" value="L0-HDV"/>
            <param key="device.toc.reponseTime" value="8.411"/>
            <param key="device.toc.initialAwareness" value="0.395"/>
            <param key="device.toc.recoveryRate" value="0.070"/>
            <param key="device.toc.tauCACCtoACC" value="1.673"/>
            <param key="device.toc.ogNewTimeHeadway" value="1.600"/>
            <param key="device.toc.ogChangeRate" value="0.800"/>
            <param key="device.toc.mrmDecel" value="3.000"/>
            <param key="device.toc.useColorScheme" value="true"/>
            <param key="device.toc.dynamicToCThreshold" value="10.395"/>
            <param key="device.toc.dynamicMRMProbability" value="0.050"/>
            <param key="device.toc.device.toc.file" value="Output-Files/ToC.xml"/>
            <param key="has.ssm.device" value="true"/>
            <param key="device.ssm.measures" value="TTC"/>
            <param key="device.ssm.thresholds" value="3.000"/>
            <param key="device.ssm.range" value="50.000"/>
            <param key="device.ssm.extratime" value="5.000"/>
            <param key="device.ssm.file" value="Output-Files\L4-CV.xml"/>
            <param key="device.ssm.trajectories" value="false"/>
            <param key="device.ssm.geo" value="false"/>
        </vType>
        <vType id="L4-CV-Straight4" carFollowModel="CACC" color="yellow" vClass="passenger" tau="0.600" decel="3.673" accel="1.501" emergencyDecel="9.000" actionStepLength="0.100" lcAssertive="0.831">
            <param key="has.toc.device" value="true"/>
            <param key="device.toc.automatedType" value="L4-CV-Straight"/>
            <param key="device.toc.manualType" value="L0-HDV"/>
            <param key="device.toc.reponseTime" value="5.952"/>
            <param key="device.toc.initialAwareness" value="0.694"/>
            <param key="device.toc.recoveryRate" value="0.352"/>
            <param key="device.toc.tauCACCtoACC" value="1.430"/>
            <param key="device.toc.ogNewTimeHeadway" value="1.600"/>
            <param key="device.toc.ogChangeRate" value="0.800"/>
            <param key="device.toc.mrmDecel" value="3.000"/>
            <param key="device.toc.useColorScheme" value="true"/>
            <param key="device.toc.dynamicToCThreshold" value="10.309"/>
            <param key="device.toc.dynamicMRMProbability" value="0.050"/>
            <param key="device.toc.device.toc.file" value="Output-Files/ToC.xml"/>
            <param key="has.ssm.device" value="true"/>
            <param key="device.ssm.measures" value="TTC"/>
            <param key="device.ssm.thresholds" value="3.000"/>
            <param key="device.ssm.range" value="50.000"/>
            <param key="device.ssm.extratime" value="5.000"/>
            <param key="device.ssm.file" value="Output-Files\L4-CV.xml"/>
            <param key="device.ssm.trajectories" value="false"/>
            <param key="device.ssm.geo" value="false"/>
        </vType>
        <vType id="L4-CV-Straight5" carFollowModel="CACC" color="yellow" vClass="passenger" tau="0.600" decel="3.523" accel="1.406" emergencyDecel="9.000" actionStepLength="0.100" lcAssertive="0.847">
            <param key="has.toc.device" value="true"/>
            <param key="device.toc.automatedType" value="L4-CV-Straight"/>
            <param key="device.toc.manualType" value="L0-HDV"/>
            <param key="device.toc.reponseTime" value="6.012"/>
            <param key="device.toc.initialAwareness" value="0.264"/>
            <param key="device.toc.recoveryRate" value="0.228"/>
            <param key="device.toc.tauCACCtoACC" value="1.332"/>
            <param key="device.toc.ogNewTimeHeadway" value="1.600"/>
            <param key="device.toc.ogChangeRate" value="0.800"/>
            <param key="device.toc.mrmDecel" value="3.000"/>
            <param key="device.toc.useColorScheme" value="true"/>
            <param key="device.toc.dynamicToCThreshold" value="10.663"/>
            <param key="device.toc.dynamicMRMProbability" value="0.050"/>
            <param key="device.toc.device.toc.file" value="Output-Files/ToC.xml"/>
            <param key="has.ssm.device" value="true"/>
            <param key="device.ssm.measures" value="TTC"/>
            <param key="device.ssm.thresholds" value="3.000"/>
            <param key="device.ssm.range" value="50.000"/>
            <param key="device.ssm.extratime" value="5.000"/>
            <param key="device.ssm.file" value="Output-Files\L4-CV.xml"/>
            <param key="device.ssm.trajectories" value="false"/>
            <param key="device.ssm.geo" value="false"/>
        </vType>
        <vType id="L4-CV-Straight6" carFollowModel="CACC" color="yellow" vClass="passenger" tau="0.600" decel="2.406" accel="0.935" emergencyDecel="9.000" actionStepLength="0.100" lcAssertive="0.885">
            <param key="has.toc.device" value="true"/>
            <param key="device.toc.automatedType" value="L4-CV-Straight"/>
            <param key="device.toc.manualType" value="L0-HDV"/>
            <param key="device.toc.reponseTime" value="5.054"/>
            <param key="device.toc.initialAwareness" value="0.613"/>
            <param key="device.toc.recoveryRate" value="0.128"/>
            <param key="device.toc.tauCACCtoACC" value="1.451"/>
            <param key="device.toc.ogNewTimeHeadway" value="1.600"/>
            <param key="device.toc.ogChangeRate" value="0.800"/>
            <param key="device.toc.mrmDecel" value="3.000"/>
            <param key="device.toc.useColorScheme" value="true"/>
            <param key="device.toc.dynamicToCThreshold" value="11.602"/>
            <param key="device.toc.dynamicMRMProbability" value="0.050"/>
            <param key="device.toc.device.toc.file" value="Output-Files/ToC.xml"/>
            <param key="has.ssm.device" value="true"/>
            <param key="device.ssm.measures" value="TTC"/>
            <param key="device.ssm.thresholds" value="3.000"/>
            <param key="device.ssm.range" value="50.000"/>
            <param key="device.ssm.extratime" value="5.000"/>
            <param key="device.ssm.file" value="Output-Files\L4-CV.xml"/>
            <param key="device.ssm.trajectories" value="false"/>
            <param key="device.ssm.geo" value="false"/>
        </vType>
        <vType id="L4-CV-Straight7" carFollowModel="CACC" color="yellow" vClass="passenger" tau="0.600" decel="2.747" accel="1.314" emergencyDecel="9.000" actionStepLength="0.100" lcAssertive="0.836">
            <param key="has.toc.device" value="true"/>
            <param key="device.toc.automatedType" value="L4-CV-Straight"/>
            <param key="device.toc.manualType" value="L0-HDV"/>
            <param key="device.toc.reponseTime" value="5.686"/>
            <param key="device.toc.initialAwareness" value="0.629"/>
            <param key="device.toc.recoveryRate" value="0.247"/>
            <param key="device.toc.tauCACCtoACC" value="1.464"/>
            <param key="device.toc.ogNewTimeHeadway" value="1.600"/>
            <param key="device.toc.ogChangeRate" value="0.800"/>
            <param key="device.toc.mrmDecel" value="3.000"/>
            <param key="device.toc.useColorScheme" value="true"/>
            <param key="device.toc.dynamicToCThreshold" value="10.067"/>
            <param key="device.toc.dynamicMRMProbability" value="0.050"/>
            <param key="device.toc.device.toc.file" value="Output-Files/ToC.xml"/>
            <param key="has.ssm.device" value="true"/>
            <param key="device.ssm.measures" value="TTC"/>
            <param key="device.ssm.thresholds" value="3.000"/>
            <param key="device.ssm.range" value="50.000"/>
            <param key="device.ssm.extratime" value="5.000"/>
            <param key="device.ssm.file" value="Output-Files\L4-CV.xml"/>
            <param key="device.ssm.trajectories" value="false"/>
            <param key="device.ssm.geo" value="false"/>
        </vType>
        <vType id="L4-CV-Straight8" carFollowModel="CACC" color="yellow" vClass="passenger" tau="0.600" decel="2.866" accel="1.840" emergencyDecel="9.000" actionStepLength="0.100" lcAssertive="0.833">
            <param key="has.toc.device" value="true"/>
            <param key="device.toc.automatedType" value="L4-CV-Straight"/>
            <param key="device.toc.manualType" value="L0-HDV"/>
            <param key="device.toc.reponseTime" value="6.089"/>
            <param key="device.toc.initialAwareness" value="0.458"/>
            <param key="device.toc.recoveryRate" value="0.162"/>
            <param key="device.toc.tauCACCtoACC" value="1.600"/>
            <param key="device.toc.ogNewTimeHeadway" value="1.600"/>
            <param key="device.toc.ogChangeRate" value="0.800"/>
            <param key="device.toc.mrmDecel" value="3.000"/>
            <param key="device.toc.useColorScheme" value="true"/>
            <param key="device.toc.dynamicToCThreshold" value="10.742"/>
            <param key="device.toc.dynamicMRMProbability" value="0.050"/>
            <param key="device.toc.device.toc.file" value="Output-Files/ToC.xml"/>
            <param key="has.ssm.device" value="true"/>
            <param key="device.ssm.measures" value="TTC"/>
            <param key="device.ssm.thresholds" value="3.000"/>
            <param key="device.ssm.range" value="50.000"/>
            <param key="device.ssm.extratime" value="5.000"/>
            <param key="device.ssm.file" value="Output-Files\L4-CV.xml"/>
            <param key="device.ssm.trajectories" value="false"/>
            <param key="device.ssm.geo" value="false"/>
        </vType>
        <vType id="L4-CV-Straight9" carFollowModel="CACC" color="yellow" vClass="passenger" tau="0.600" decel="3.888" accel="1.926" emergencyDecel="9.000" actionStepLength="0.100" lcAssertive="0.843">
            <param key="has.toc.device" value="true"/>
            <param key="device.toc.automatedType" value="L4-CV-Straight"/>
            <param key="device.toc.manualType" value="L0-HDV"/>
            <param key="device.toc.reponseTime" value="6.727"/>
            <param key="device.toc.initialAwareness" value="0.003"/>
            <param key="device.toc.recoveryRate" value="0.176"/>
            <param key="device.toc.tauCACCtoACC" value="1.584"/>
            <param key="device.toc.ogNewTimeHeadway" value="1.600"/>
            <param key="device.toc.ogChangeRate" value="0.800"/>
            <param key="device.toc.mrmDecel" value="3.000"/>
            <param key="device.toc.useColorScheme" value="true"/>
            <param key="device.toc.dynamicToCThreshold" value="10.365"/>
            <param key="device.toc.dynamicMRMProbability" value="0.050"/>
            <param key="device.toc.device.toc.file" value="Output-Files/ToC.xml"/>
            <param key="has.ssm.device" value="true"/>
            <param key="device.ssm.measures" value="TTC"/>
            <param key="device.ssm.thresholds" value="3.000"/>
            <param key="device.ssm.range" value="50.000"/>
            <param key="device.ssm.extratime" value="5.000"/>
            <param key="device.ssm.file" value="Output-Files\L4-CV.xml"/>
            <param key="device.ssm.trajectories" value="false"/>
            <param key="device.ssm.geo" value="false"/>
        </vType>
        <vType id="L4-CV-Straight10" carFollowModel="CACC" color="yellow" vClass="passenger" tau="0.600" decel="2.070" accel="1.234" emergencyDecel="9.000" actionStepLength="0.100" lcAssertive="0.889">
            <param key="has.toc.device" value="true"/>
            <param key="device.toc.automatedType" value="L4-CV-Straight"/>
            <param key="device.toc.manualType" value="L0-HDV"/>
            <param key="device.toc.reponseTime" value="7.092"/>
            <param key="device.toc.initialAwareness" value="0.073"/>
            <param key="device.toc.recoveryRate" value="0.151"/>
            <param key="device.toc.tauCACCtoACC" value="1.594"/>
            <param key="device.toc.ogNewTimeHeadway" value="1.600"/>
            <param key="device.toc.ogChangeRate" value="0.800"/>
            <param key="device.toc.mrmDecel" value="3.000"/>
            <param key="device.toc.useColorScheme" value="true"/>
            <param key="device.toc.dynamicToCThreshold" value="11.156"/>
            <param key="device.toc.dynamicMRMProbability" value="0.050"/>
            <param key="device.toc.device.toc.file" value="Output-Files/ToC.xml"/>
            <param key="has.ssm.device" value="true"/>
            <param key="device.ssm.measures" value="TTC"/>
            <param key="device.ssm.thresholds" value="3.000"/>
            <param key="device.ssm.range" value="50.000"/>
            <param key="device.ssm.extratime" value="5.000"/>
            <param key="device.ssm.file" value="Output-Files\L4-CV.xml"/>
            <param key="device.ssm.trajectories" value="false"/>
            <param key="device.ssm.geo" value="false"/>
        </vType>
        <vType id="L4-CV-Straight11" carFollowModel="CACC" color="yellow" vClass="passenger" tau="0.600" decel="2.792" accel="1.319" emergencyDecel="9.000" actionStepLength="0.100" lcAssertive="0.856">
            <param key="has.toc.device" value="true"/>
            <param key="device.toc.automatedType" value="L4-CV-Straight"/>
            <param key="device.toc.manualType" value="L0-HDV"/>
            <param key="device.toc.reponseTime" value="7.392"/>
            <param key="device.toc.initialAwareness" value="0.419"/>
            <param key="device.toc.recoveryRate" value="0.402"/>
            <param key="device.toc.tauCACCtoACC" value="1.775"/>
            <param key="device.toc.ogNewTimeHeadway" value="1.600"/>
            <param key="device.toc.ogChangeRate" value="0.800"/>
            <param key="device.toc.mrmDecel" value="3.000"/>
            <param key="device.toc.useColorScheme" value="true"/>
            <param key="device.toc.dynamicToCThreshold" value="10.654"/>
            <param key="device.toc.dynamicMRMProbability" value="0.050"/>
            <param key="device.toc.device.toc.file" value="Output-Files/ToC.xml"/>
            <param key="has.ssm.device" value="true"/>
            <param key="device.ssm.measures" value="TTC"/>
            <param key="device.ssm.thresholds" value="3.000"/>
            <param key="device.ssm.range" value="50.000"/>
            <param key="device.ssm.extratime" value="5.000"/>
            <param key="device.ssm.file" value="Output-Files\L4-CV.xml"/>
            <param key="device.ssm.trajectories" value="false"/>
            <param key="device.ssm.geo" value="false"/>
        </vType>
        <vType id="L4-CV-Straight12" carFollowModel="CACC" color="yellow" vClass="passenger" tau="0.600" decel="3.866" accel="1.021" emergencyDecel="9.000" actionStepLength="0.100" lcAssertive="0.842">
            <param key="has.toc.device" value="true"/>
            <param key="device.toc.automatedType" value="L4-CV-Straight"/>
            <param key="device.toc.manualType" value="L0-HDV"/>
            <param key="device.toc.reponseTime" value="6.991"/>
            <param key="device.toc.initialAwareness" value="0.588"/>
            <param key="device.toc.recoveryRate" value="0.240"/>
            <param key="device.toc.tauCACCtoACC" value="1.631"/>
            <param key="device.toc.ogNewTimeHeadway" value="1.600"/>
            <param key="device.toc.ogChangeRate" value="0.800"/>
            <param key="device.toc.mrmDecel" value="3.000"/>
            <param key="device.toc.useColorScheme" value="true"/>
            <param key="device.toc.dynamicToCThreshold" value="9.914"/>
            <param key="device.toc.dynamicMRMProbability" value="0.050"/>
            <param key="device.toc.device.toc.file" value="Output-Files/ToC.xml"/>
            <param key="has.ssm.device" value="true"/>
            <param key="device.ssm.measures" value="TTC"/>
            <param key="device.ssm.thresholds" value="3.000"/>
            <param key="device.ssm.range" value="50.000"/>
            <param key="device.ssm.extratime" value="5.000"/>
            <param key="device.ssm.file" value="Output-Files\L4-CV.xml"/>
            <param key="device.ssm.trajectories" value="false"/>
            <param key="device.ssm.geo" value="false"/>
        </vType>
        <vType id="L4-CV-Straight13" carFollowModel="CACC" color="yellow" vClass="passenger" tau="0.600" decel="3.404" accel="1.873" emergencyDecel="9.000" actionStepLength="0.100" lcAssertive="0.841">
            <param key="has.toc.device" value="true"/>
            <param key="device.toc.automatedType" value="L4-CV-Straight"/>
            <param key="device.toc.manualType" value="L0-HDV"/>
            <param key="device.toc.reponseTime" value="2.538"/>
            <param key="device.toc.initialAwareness" value="0.509"/>
            <param key="device.toc.recoveryRate" value="0.376"/>
            <param key="device.toc.tauCACCtoACC" value="1.450"/>
            <param key="device.toc.ogNewTimeHeadway" value="1.600"/>
            <param key="device.toc.ogChangeRate" value="0.800"/>
            <param key="device.toc.mrmDecel" value="3.000"/>
            <param key="device.toc.useColorScheme" value="true"/>
            <param key="device.toc.dynamicToCThreshold" value="11.210"/>
            <param key="device.toc.dynamicMRMProbability" value="0.050"/>
            <param key="device.toc.device.toc.file" value="Output-Files/ToC.xml"/>
            <param key="has.ssm.device" value="true"/>
            <param key="device.ssm.measures" value="TTC"/>
            <param key="device.ssm.thresholds" value="3.000"/>
            <param key="device.ssm.range" value="50.000"/>
            <param key="device.ssm.extratime" value="5.000"/>
            <param key="device.ssm.file" value="Output-Files\L4-CV.xml"/>
            <param key="device.ssm.trajectories" value="false"/>
            <param key="device.ssm.geo" value="false"/>
        </vType>
        <vType id="L4-CV-Straight14" carFollowModel="CACC" color="yellow" vClass="passenger" tau="0.600" decel="3.539" accel="0.947" emergencyDecel="9.000" actionStepLength="0.100" lcAssertive="0.845">
            <param key="has.toc.device" value="true"/>
            <param key="device.toc.automatedType" value="L4-CV-Straight"/>
            <param key="device.toc.manualType" value="L0-HDV"/>
            <param key="device.toc.reponseTime" value="3.238"/>
            <param key="device.toc.initialAwareness" value="0.899"/>
            <param key="device.toc.recoveryRate" value="0.174"/>
            <param key="device.toc.tauCACCtoACC" value="1.443"/>
            <param key="device.toc.ogNewTimeHeadway" value="1.600"/>
            <param key="device.toc.ogChangeRate" value="0.800"/>
            <param key="device.toc.mrmDecel" value="3.000"/>
            <param key="device.toc.useColorScheme" value="true"/>
            <param key="device.toc.dynamicToCThreshold" value="11.248"/>
            <param key="device.toc.dynamicMRMProbability" value="0.050"/>
            <param key="device.toc.device.toc.file" value="Output-Files/ToC.xml"/>
            <param key="has.ssm.device" value="true"/>
            <param key="device.ssm.measures" value="TTC"/>
            <param key="device.ssm.thresholds" value="3.000"/>
            <param key="device.ssm.range" value="50.000"/>
            <param key="device.ssm.extratime" value="5.000"/>
            <param key="device.ssm.file" value="Output-Files\L4-CV.xml"/>
            <param key="device.ssm.trajectories" value="false"/>
            <param key="device.ssm.geo" value="false"/>
        </vType>
        <vType id="L4-CV-Straight15" carFollowModel="CACC" color="yellow" vClass="passenger" tau="0.600" decel="2.874" accel="1.035" emergencyDecel="9.000" actionStepLength="0.100" lcAssertive="0.862">
            <param key="has.toc.device" value="true"/>
            <param key="device.toc.automatedType" value="L4-CV-Straight"/>
            <param key="device.toc.manualType" value="L0-HDV"/>
            <param key="device.toc.reponseTime" value="2.486"/>
            <param key="device.toc.initialAwareness" value="0.536"/>
            <param key="device.toc.recoveryRate" value="0.470"/>
            <param key="device.toc.tauCACCtoACC" value="1.576"/>
            <param key="device.toc.ogNewTimeHeadway" value="1.600"/>
            <param key="device.toc.ogChangeRate" value="0.800"/>
            <param key="device.toc.mrmDecel" value="3.000"/>
            <param key="device.toc.useColorScheme" value="true"/>
            <param key="device.toc.dynamicToCThreshold" value="10.583"/>
            <param key="device.toc.dynamicMRMProbability" value="0.050"/>
            <param key="device.toc.device.toc.file" value="Output-Files/ToC.xml"/>
            <param key="has.ssm.device" value="true"/>
            <param key="device.ssm.measures" value="TTC"/>
            <param key="device.ssm.thresholds" value="3.000"/>
            <param key="device.ssm.range" value="50.000"/>
            <param key="device.ssm.extratime" value="5.000"/>
            <param key="device.ssm.file" value="Output-Files\L4-CV.xml"/>
            <param key="device.ssm.trajectories" value="false"/>
            <param key="device.ssm.geo" value="false"/>
        </vType>
        <vType id="L4-CV-Straight16" carFollowModel="CACC" color="yellow" vClass="passenger" tau="0.600" decel="2.604" accel="1.487" emergencyDecel="9.000" actionStepLength="0.100" lcAssertive="0.887">
            <param key="has.toc.device" value="true"/>
            <param key="device.toc.automatedType" value="L4-CV-Straight"/>
            <param key="device.toc.manualType" value="L0-HDV"/>
            <param key="device.toc.reponseTime" value="3.093"/>
            <param key="device.toc.initialAwareness" value="0.458"/>
            <param key="device.toc.recoveryRate" value="0.212"/>
            <param key="device.toc.tauCACCtoACC" value="2.156"/>
            <param key="device.toc.ogNewTimeHeadway" value="1.600"/>
            <param key="device.toc.ogChangeRate" value="0.800"/>
            <param key="device.toc.mrmDecel" value="3.000"/>
            <param key="device.toc.useColorScheme" value="true"/>
            <param key="device.toc.dynamicToCThreshold" value="11.867"/>
            <param key="device.toc.dynamicMRMProbability" value="0.050"/>
            <param key="device.toc.device.toc.file" value="Output-Files/ToC.xml"/>
            <param key="has.ssm.device" value="true"/>
            <param key="device.ssm.measures" value="TTC"/>
            <param key="device.ssm.thresholds" value="3.000"/>
            <param key="device.ssm.range" value="50.000"/>
            <param key="device.ssm.extratime" value="5.000"/>
            <param key="device.ssm.file" value="Output-Files\L4-CV.xml"/>
            <param key="device.ssm.trajectories" value="false"/>
            <param key="device.ssm.geo" value="false"/>
        </vType>