<additional xmlns:xsi="http://www.w3.org/2001/XMLSchema-instance" xsi:noNamespaceSchemaLocation="http://sumo.dlr.de/xsd/additional_file.xsd">
    
    
    
    
    
    
    
    
    
    
    
    
    
    
    
    
    
    
    
    
    
    
    
    
    
    
    
    
    
    
    
    
    
    
    
    
    
    
    
    
    <vTypeDistribution id="L4-CV-">
        <vType id="L4-CV-0" carFollowModel="CACC" color="yellow" vClass="custom1" tau="0.600" decel="3.245" accel="1.003" emergencyDecel="9.000" actionStepLength="0.100" lcAssertive="0.875">
            <param key="has.toc.device" value="true"/>
            <param key="device.toc.automatedType" value="L4-CV-"/>
            <param key="device.toc.manualType" value="L0-HDV-"/>
            <param key="device.toc.responseTime" value="6.724"/>
            <param key="device.toc.initialAwareness" value="0.405"/>
            <param key="device.toc.recoveryRate" value="0.357"/>
            <param key="device.toc.tauCACCtoACC" value="1.266"/>
            <param key="device.toc.ogNewTimeHeadway" value="1.600"/>
            <param key="device.toc.ogChangeRate" value="0.800"/>
            <param key="device.toc.mrmDecel" value="3.000"/>
            <param key="device.toc.useColorScheme" value="true"/>
            <param key="device.toc.dynamicToCThreshold" value="9.869"/>
            <param key="has.ssm.device" value="true"/>
            <param key="device.ssm.measures" value="TTC DRAC PET"/>
            <param key="device.ssm.thresholds" value="0.75 5.0 2.0"/>
            <param key="device.ssm.range" value="50.000"/>
            <param key="device.ssm.extratime" value="5.000"/>
            <param key="device.ssm.file" value="Output-Files\SSM-L4-CV.xml"/>
            <param key="device.ssm.trajectories" value="false"/>
            <param key="device.ssm.geo" value="true"/>
        </vType>
        <vType id="L4-CV-1" carFollowModel="CACC" color="yellow" vClass="custom1" tau="0.600" decel="2.675" accel="1.035" emergencyDecel="9.000" actionStepLength="0.100" lcAssertive="0.880">
            <param key="has.toc.device" value="true"/>
            <param key="device.toc.automatedType" value="L4-CV-"/>
            <param key="device.toc.manualType" value="L0-HDV-"/>
            <param key="device.toc.responseTime" value="9.936"/>
            <param key="device.toc.initialAwareness" value="0.674"/>
            <param key="device.toc.recoveryRate" value="0.234"/>
            <param key="device.toc.tauCACCtoACC" value="1.312"/>
            <param key="device.toc.ogNewTimeHeadway" value="1.600"/>
            <param key="device.toc.ogChangeRate" value="0.800"/>
            <param key="device.toc.mrmDecel" value="3.000"/>
            <param key="device.toc.useColorScheme" value="true"/>
            <param key="device.toc.dynamicToCThreshold" value="8.526"/>
            <param key="has.ssm.device" value="true"/>
            <param key="device.ssm.measures" value="TTC DRAC PET"/>
            <param key="device.ssm.thresholds" value="0.75 5.0 2.0"/>
            <param key="device.ssm.range" value="50.000"/>
            <param key="device.ssm.extratime" value="5.000"/>
            <param key="device.ssm.file" value="Output-Files\SSM-L4-CV.xml"/>
            <param key="device.ssm.trajectories" value="false"/>
            <param key="device.ssm.geo" value="true"/>
        </vType>
        <vType id="L4-CV-2" carFollowModel="CACC" color="yellow" vClass="custom1" tau="0.600" decel="3.366" accel="1.218" emergencyDecel="9.000" actionStepLength="0.100" lcAssertive="0.863">
            <param key="has.toc.device" value="true"/>
            <param key="device.toc.automatedType" value="L4-CV-"/>
            <param key="device.toc.manualType" value="L0-HDV-"/>
            <param key="device.toc.responseTime" value="2.834"/>
            <param key="device.toc.initialAwareness" value="0.414"/>
            <param key="device.toc.recoveryRate" value="0.331"/>
            <param key="device.toc.tauCACCtoACC" value="1.414"/>
            <param key="device.toc.ogNewTimeHeadway" value="1.600"/>
            <param key="device.toc.ogChangeRate" value="0.800"/>
            <param key="device.toc.mrmDecel" value="3.000"/>
            <param key="device.toc.useColorScheme" value="true"/>
            <param key="device.toc.dynamicToCThreshold" value="9.471"/>
            <param key="has.ssm.device" value="true"/>
            <param key="device.ssm.measures" value="TTC DRAC PET"/>
            <param key="device.ssm.thresholds" value="0.75 5.0 2.0"/>
            <param key="device.ssm.range" value="50.000"/>
            <param key="device.ssm.extratime" value="5.000"/>
            <param key="device.ssm.file" value="Output-Files\SSM-L4-CV.xml"/>
            <param key="device.ssm.trajectories" value="false"/>
            <param key="device.ssm.geo" value="true"/>
        </vType>
        <vType id="L4-CV-3" carFollowModel="CACC" color="yellow" vClass="custom1" tau="0.600" decel="3.441" accel="0.965" emergencyDecel="9.000" actionStepLength="0.100" lcAssertive="0.853">
            <param key="has.toc.device" value="true"/>
            <param key="device.toc.automatedType" value="L4-CV-"/>
            <param key="device.toc.manualType" value="L0-HDV-"/>
            <param key="device.toc.responseTime" value="9.840"/>
            <param key="device.toc.initialAwareness" value="0.556"/>
            <param key="device.toc.recoveryRate" value="0.120"/>
            <param key="device.toc.tauCACCtoACC" value="1.673"/>
            <param key="device.toc.ogNewTimeHeadway" value="1.600"/>
            <param key="device.toc.ogChangeRate" value="0.800"/>
            <param key="device.toc.mrmDecel" value="3.000"/>
            <param key="device.toc.useColorScheme" value="true"/>
            <param key="device.toc.dynamicToCThreshold" value="8.395"/>
            <param key="has.ssm.device" value="true"/>
            <param key="device.ssm.measures" value="TTC DRAC PET"/>
            <param key="device.ssm.thresholds" value="0.75 5.0 2.0"/>
            <param key="device.ssm.range" value="50.000"/>
            <param key="device.ssm.extratime" value="5.000"/>
            <param key="device.ssm.file" value="Output-Files\SSM-L4-CV.xml"/>
            <param key="device.ssm.trajectories" value="false"/>
            <param key="device.ssm.geo" value="true"/>
        </vType>
        <vType id="L4-CV-4" carFollowModel="CACC" color="yellow" vClass="custom1" tau="0.600" decel="3.673" accel="1.501" emergencyDecel="9.000" actionStepLength="0.100" lcAssertive="0.831">
            <param key="has.toc.device" value="true"/>
            <param key="device.toc.automatedType" value="L4-CV-"/>
            <param key="device.toc.manualType" value="L0-HDV-"/>
            <param key="device.toc.responseTime" value="7.441"/>
            <param key="device.toc.initialAwareness" value="0.796"/>
            <param key="device.toc.recoveryRate" value="0.402"/>
            <param key="device.toc.tauCACCtoACC" value="1.430"/>
            <param key="device.toc.ogNewTimeHeadway" value="1.600"/>
            <param key="device.toc.ogChangeRate" value="0.800"/>
            <param key="device.toc.mrmDecel" value="3.000"/>
            <param key="device.toc.useColorScheme" value="true"/>
            <param key="device.toc.dynamicToCThreshold" value="8.309"/>
            <param key="has.ssm.device" value="true"/>
            <param key="device.ssm.measures" value="TTC DRAC PET"/>
            <param key="device.ssm.thresholds" value="0.75 5.0 2.0"/>
            <param key="device.ssm.range" value="50.000"/>
            <param key="device.ssm.extratime" value="5.000"/>
            <param key="device.ssm.file" value="Output-Files\SSM-L4-CV.xml"/>
            <param key="device.ssm.trajectories" value="false"/>
            <param key="device.ssm.geo" value="true"/>
        </vType>
        <vType id="L4-CV-5" carFollowModel="CACC" color="yellow" vClass="custom1" tau="0.600" decel="3.523" accel="1.406" emergencyDecel="9.000" actionStepLength="0.100" lcAssertive="0.847">
            <param key="has.toc.device" value="true"/>
            <param key="device.toc.automatedType" value="L4-CV-"/>
            <param key="device.toc.manualType" value="L0-HDV-"/>
            <param key="device.toc.responseTime" value="7.499"/>
            <param key="device.toc.initialAwareness" value="0.451"/>
            <param key="device.toc.recoveryRate" value="0.278"/>
            <param key="device.toc.tauCACCtoACC" value="1.332"/>
            <param key="device.toc.ogNewTimeHeadway" value="1.600"/>
            <param key="device.toc.ogChangeRate" value="0.800"/>
            <param key="device.toc.mrmDecel" value="3.000"/>
            <param key="device.toc.useColorScheme" value="true"/>
            <param key="device.toc.dynamicToCThreshold" value="8.663"/>
            <param key="has.ssm.device" value="true"/>
            <param key="device.ssm.measures" value="TTC DRAC PET"/>
            <param key="device.ssm.thresholds" value="0.75 5.0 2.0"/>
            <param key="device.ssm.range" value="50.000"/>
            <param key="device.ssm.extratime" value="5.000"/>
            <param key="device.ssm.file" value="Output-Files\SSM-L4-CV.xml"/>
            <param key="device.ssm.trajectories" value="false"/>
            <param key="device.ssm.geo" value="true"/>
        </vType>
        <vType id="L4-CV-6" carFollowModel="CACC" color="yellow" vClass="custom1" tau="0.600" decel="2.406" accel="0.935" emergencyDecel="9.000" actionStepLength="0.100" lcAssertive="0.885">
            <param key="has.toc.device" value="true"/>
            <param key="device.toc.automatedType" value="L4-CV-"/>
            <param key="device.toc.manualType" value="L0-HDV-"/>
            <param key="device.toc.responseTime" value="6.565"/>
            <param key="device.toc.initialAwareness" value="0.730"/>
            <param key="device.toc.recoveryRate" value="0.178"/>
            <param key="device.toc.tauCACCtoACC" value="1.451"/>
            <param key="device.toc.ogNewTimeHeadway" value="1.600"/>
            <param key="device.toc.ogChangeRate" value="0.800"/>
            <param key="device.toc.mrmDecel" value="3.000"/>
            <param key="device.toc.useColorScheme" value="true"/>
            <param key="device.toc.dynamicToCThreshold" value="9.602"/>
            <param key="has.ssm.device" value="true"/>
            <param key="device.ssm.measures" value="TTC DRAC PET"/>
            <param key="device.ssm.thresholds" value="0.75 5.0 2.0"/>
            <param key="device.ssm.range" value="50.000"/>
            <param key="device.ssm.extratime" value="5.000"/>
            <param key="device.ssm.file" value="Output-Files\SSM-L4-CV.xml"/>
            <param key="device.ssm.trajectories" value="false"/>
            <param key="device.ssm.geo" value="true"/>
        </vType>
        <vType id="L4-CV-7" carFollowModel="CACC" color="yellow" vClass="custom1" tau="0.600" decel="2.747" accel="1.314" emergencyDecel="9.000" actionStepLength="0.100" lcAssertive="0.836">
            <param key="has.toc.device" value="true"/>
            <param key="device.toc.automatedType" value="L4-CV-"/>
            <param key="device.toc.manualType" value="L0-HDV-"/>
            <param key="device.toc.responseTime" value="7.182"/>
            <param key="device.toc.initialAwareness" value="0.744"/>
            <param key="device.toc.recoveryRate" value="0.297"/>
            <param key="device.toc.tauCACCtoACC" value="1.464"/>
            <param key="device.toc.ogNewTimeHeadway" value="1.600"/>
            <param key="device.toc.ogChangeRate" value="0.800"/>
            <param key="device.toc.mrmDecel" value="3.000"/>
            <param key="device.toc.useColorScheme" value="true"/>
            <param key="device.toc.dynamicToCThreshold" value="8.067"/>
            <param key="has.ssm.device" value="true"/>
            <param key="device.ssm.measures" value="TTC DRAC PET"/>
            <param key="device.ssm.thresholds" value="0.75 5.0 2.0"/>
            <param key="device.ssm.range" value="50.000"/>
            <param key="device.ssm.extratime" value="5.000"/>
            <param key="device.ssm.file" value="Output-Files\SSM-L4-CV.xml"/>
            <param key="device.ssm.trajectories" value="false"/>
            <param key="device.ssm.geo" value="true"/>
        </vType>
        <vType id="L4-CV-8" carFollowModel="CACC" color="yellow" vClass="custom1" tau="0.600" decel="2.866" accel="1.840" emergencyDecel="9.000" actionStepLength="0.100" lcAssertive="0.833">
            <param key="has.toc.device" value="true"/>
            <param key="device.toc.automatedType" value="L4-CV-"/>
            <param key="device.toc.manualType" value="L0-HDV-"/>
            <param key="device.toc.responseTime" value="7.574"/>
            <param key="device.toc.initialAwareness" value="0.607"/>
            <param key="device.toc.recoveryRate" value="0.212"/>
            <param key="device.toc.tauCACCtoACC" value="1.600"/>
            <param key="device.toc.ogNewTimeHeadway" value="1.600"/>
            <param key="device.toc.ogChangeRate" value="0.800"/>
            <param key="device.toc.mrmDecel" value="3.000"/>
            <param key="device.toc.useColorScheme" value="true"/>
            <param key="device.toc.dynamicToCThreshold" value="8.742"/>
            <param key="has.ssm.device" value="true"/>
            <param key="device.ssm.measures" value="TTC DRAC PET"/>
            <param key="device.ssm.thresholds" value="0.75 5.0 2.0"/>
            <param key="device.ssm.range" value="50.000"/>
            <param key="device.ssm.extratime" value="5.000"/>
            <param key="device.ssm.file" value="Output-Files\SSM-L4-CV.xml"/>
            <param key="device.ssm.trajectories" value="false"/>
            <param key="device.ssm.geo" value="true"/>
        </vType>
        <vType id="L4-CV-9" carFollowModel="CACC" color="yellow" vClass="custom1" tau="0.600" decel="3.888" accel="1.926" emergencyDecel="9.000" actionStepLength="0.100" lcAssertive="0.843">
            <param key="has.toc.device" value="true"/>
            <param key="device.toc.automatedType" value="L4-CV-"/>
            <param key="device.toc.manualType" value="L0-HDV-"/>
            <param key="device.toc.responseTime" value="8.197"/>
            <param key="device.toc.initialAwareness" value="0.452"/>
            <param key="device.toc.recoveryRate" value="0.342"/>
            <param key="device.toc.tauCACCtoACC" value="1.246"/>
            <param key="device.toc.ogNewTimeHeadway" value="1.600"/>
            <param key="device.toc.ogChangeRate" value="0.800"/>
            <param key="device.toc.mrmDecel" value="3.000"/>
            <param key="device.toc.useColorScheme" value="true"/>
            <param key="device.toc.dynamicToCThreshold" value="8.323"/>
            <param key="has.ssm.device" value="true"/>
            <param key="device.ssm.measures" value="TTC DRAC PET"/>
            <param key="device.ssm.thresholds" value="0.75 5.0 2.0"/>
            <param key="device.ssm.range" value="50.000"/>
            <param key="device.ssm.extratime" value="5.000"/>
            <param key="device.ssm.file" value="Output-Files\SSM-L4-CV.xml"/>
            <param key="device.ssm.trajectories" value="false"/>
            <param key="device.ssm.geo" value="true"/>
        </vType>
        <vType id="L4-CV-10" carFollowModel="CACC" color="yellow" vClass="custom1" tau="0.600" decel="2.070" accel="1.234" emergencyDecel="9.000" actionStepLength="0.100" lcAssertive="0.889">
            <param key="has.toc.device" value="true"/>
            <param key="device.toc.automatedType" value="L4-CV-"/>
            <param key="device.toc.manualType" value="L0-HDV-"/>
            <param key="device.toc.responseTime" value="8.553"/>
            <param key="device.toc.initialAwareness" value="0.402"/>
            <param key="device.toc.recoveryRate" value="0.347"/>
            <param key="device.toc.tauCACCtoACC" value="1.563"/>
            <param key="device.toc.ogNewTimeHeadway" value="1.600"/>
            <param key="device.toc.ogChangeRate" value="0.800"/>
            <param key="device.toc.mrmDecel" value="3.000"/>
            <param key="device.toc.useColorScheme" value="true"/>
            <param key="device.toc.dynamicToCThreshold" value="8.896"/>
            <param key="has.ssm.device" value="true"/>
            <param key="device.ssm.measures" value="TTC DRAC PET"/>
            <param key="device.ssm.thresholds" value="0.75 5.0 2.0"/>
            <param key="device.ssm.range" value="50.000"/>
            <param key="device.ssm.extratime" value="5.000"/>
            <param key="device.ssm.file" value="Output-Files\SSM-L4-CV.xml"/>
            <param key="device.ssm.trajectories" value="false"/>
            <param key="device.ssm.geo" value="true"/>
        </vType>
        <vType id="L4-CV-11" carFollowModel="CACC" color="yellow" vClass="custom1" tau="0.600" decel="2.819" accel="1.819" emergencyDecel="9.000" actionStepLength="0.100" lcAssertive="0.868">
            <param key="has.toc.device" value="true"/>
            <param key="device.toc.automatedType" value="L4-CV-"/>
            <param key="device.toc.manualType" value="L0-HDV-"/>
            <param key="device.toc.responseTime" value="6.749"/>
            <param key="device.toc.initialAwareness" value="0.905"/>
            <param key="device.toc.recoveryRate" value="0.437"/>
            <param key="device.toc.tauCACCtoACC" value="1.362"/>
            <param key="device.toc.ogNewTimeHeadway" value="1.600"/>
            <param key="device.toc.ogChangeRate" value="0.800"/>
            <param key="device.toc.mrmDecel" value="3.000"/>
            <param key="device.toc.useColorScheme" value="true"/>
            <param key="device.toc.dynamicToCThreshold" value="9.433"/>
            <param key="has.ssm.device" value="true"/>
            <param key="device.ssm.measures" value="TTC DRAC PET"/>
            <param key="device.ssm.thresholds" value="0.75 5.0 2.0"/>
            <param key="device.ssm.range" value="50.000"/>
            <param key="device.ssm.extratime" value="5.000"/>
            <param key="device.ssm.file" value="Output-Files\SSM-L4-CV.xml"/>
            <param key="device.ssm.trajectories" value="false"/>
            <param key="device.ssm.geo" value="true"/>
        </vType>
        <vType id="L4-CV-12" carFollowModel="CACC" color="yellow" vClass="custom1" tau="0.600" decel="2.521" accel="1.077" emergencyDecel="9.000" actionStepLength="0.100" lcAssertive="0.865">
            <param key="has.toc.device" value="true"/>
            <param key="device.toc.automatedType" value="L4-CV-"/>
            <param key="device.toc.manualType" value="L0-HDV-"/>
            <param key="device.toc.responseTime" value="8.105"/>
            <param key="device.toc.initialAwareness" value="0.580"/>
            <param key="device.toc.recoveryRate" value="0.366"/>
            <param key="device.toc.tauCACCtoACC" value="1.066"/>
            <param key="device.toc.ogNewTimeHeadway" value="1.600"/>
            <param key="device.toc.ogChangeRate" value="0.800"/>
            <param key="device.toc.mrmDecel" value="3.000"/>
            <param key="device.toc.useColorScheme" value="true"/>
            <param key="device.toc.dynamicToCThreshold" value="9.556"/>
            <param key="has.ssm.device" value="true"/>
            <param key="device.ssm.measures" value="TTC DRAC PET"/>
            <param key="device.ssm.thresholds" value="0.75 5.0 2.0"/>
            <param key="device.ssm.range" value="50.000"/>
            <param key="device.ssm.extratime" value="5.000"/>
            <param key="device.ssm.file" value="Output-Files\SSM-L4-CV.xml"/>
            <param key="device.ssm.trajectories" value="false"/>
            <param key="device.ssm.geo" value="true"/>
        </vType>
        <vType id="L4-CV-13" carFollowModel="CACC" color="yellow" vClass="custom1" tau="0.600" decel="3.404" accel="1.873" emergencyDecel="9.000" actionStepLength="0.100" lcAssertive="0.841">
            <param key="has.toc.device" value="true"/>
            <param key="device.toc.automatedType" value="L4-CV-"/>
            <param key="device.toc.manualType" value="L0-HDV-"/>
            <param key="device.toc.responseTime" value="4.110"/>
            <param key="device.toc.initialAwareness" value="0.647"/>
            <param key="device.toc.recoveryRate" value="0.426"/>
            <param key="device.toc.tauCACCtoACC" value="1.450"/>
            <param key="device.toc.ogNewTimeHeadway" value="1.600"/>
            <param key="device.toc.ogChangeRate" value="0.800"/>
            <param key="device.toc.mrmDecel" value="3.000"/>
            <param key="device.toc.useColorScheme" value="true"/>
            <param key="device.toc.dynamicToCThreshold" value="9.210"/>
            <param key="has.ssm.device" value="true"/>
            <param key="device.ssm.measures" value="TTC DRAC PET"/>
            <param key="device.ssm.thresholds" value="0.75 5.0 2.0"/>
            <param key="device.ssm.range" value="50.000"/>
            <param key="device.ssm.extratime" value="5.000"/>
            <param key="device.ssm.file" value="Output-Files\SSM-L4-CV.xml"/>
            <param key="device.ssm.trajectories" value="false"/>
            <param key="device.ssm.geo" value="true"/>
        </vType>
        <vType id="L4-CV-14" carFollowModel="CACC" color="yellow" vClass="custom1" tau="0.600" decel="3.539" accel="0.947" emergencyDecel="9.000" actionStepLength="0.100" lcAssertive="0.845">
            <param key="has.toc.device" value="true"/>
            <param key="device.toc.automatedType" value="L4-CV-"/>
            <param key="device.toc.manualType" value="L0-HDV-"/>
            <param key="device.toc.responseTime" value="4.793"/>
            <param key="device.toc.initialAwareness" value="0.959"/>
            <param key="device.toc.recoveryRate" value="0.224"/>
            <param key="device.toc.tauCACCtoACC" value="1.443"/>
            <param key="device.toc.ogNewTimeHeadway" value="1.600"/>
            <param key="device.toc.ogChangeRate" value="0.800"/>
            <param key="device.toc.mrmDecel" value="3.000"/>
            <param key="device.toc.useColorScheme" value="true"/>
            <param key="device.toc.dynamicToCThreshold" value="9.248"/>
            <param key="has.ssm.device" value="true"/>
            <param key="device.ssm.measures" value="TTC DRAC PET"/>
            <param key="device.ssm.thresholds" value="0.75 5.0 2.0"/>
            <param key="device.ssm.range" value="50.000"/>
            <param key="device.ssm.extratime" value="5.000"/>
            <param key="device.ssm.file" value="Output-Files\SSM-L4-CV.xml"/>
            <param key="device.ssm.trajectories" value="false"/>
            <param key="device.ssm.geo" value="true"/>
        </vType>
        <vType id="L4-CV-15" carFollowModel="CACC" color="yellow" vClass="custom1" tau="0.600" decel="2.874" accel="1.035" emergencyDecel="9.000" actionStepLength="0.100" lcAssertive="0.862">
            <param key="has.toc.device" value="true"/>
            <param key="device.toc.automatedType" value="L4-CV-"/>
            <param key="device.toc.manualType" value="L0-HDV-"/>
            <param key="device.toc.responseTime" value="4.060"/>
            <param key="device.toc.initialAwareness" value="0.669"/>
            <param key="device.toc.recoveryRate" value="0.520"/>
            <param key="device.toc.tauCACCtoACC" value="1.576"/>
            <param key="device.toc.ogNewTimeHeadway" value="1.600"/>
            <param key="device.toc.ogChangeRate" value="0.800"/>
            <param key="device.toc.mrmDecel" value="3.000"/>
            <param key="device.toc.useColorScheme" value="true"/>
            <param key="device.toc.dynamicToCThreshold" value="8.583"/>
            <param key="has.ssm.device" value="true"/>
            <param key="device.ssm.measures" value="TTC DRAC PET"/>
            <param key="device.ssm.thresholds" value="0.75 5.0 2.0"/>
            <param key="device.ssm.range" value="50.000"/>
            <param key="device.ssm.extratime" value="5.000"/>
            <param key="device.ssm.file" value="Output-Files\SSM-L4-CV.xml"/>
            <param key="device.ssm.trajectories" value="false"/>
            <param key="device.ssm.geo" value="true"/>
        </vType>
        <vType id="L4-CV-16" carFollowModel="CACC" color="yellow" vClass="custom1" tau="0.600" decel="2.604" accel="1.487" emergencyDecel="9.000" actionStepLength="0.100" lcAssertive="0.887">
            <param key="has.toc.device" value="true"/>
            <param key="device.toc.automatedType" value="L4-CV-"/>
            <param key="device.toc.manualType" value="L0-HDV-"/>
            <param key="device.toc.responseTime" value="4.652"/>
            <param key="device.toc.initialAwareness" value="0.606"/>
            <param key="device.toc.recoveryRate" value="0.262"/>
            <param key="device.toc.tauCACCtoACC" value="2.156"/>
            <param key="device.toc.ogNewTimeHeadway" value="1.600"/>
            <param key="device.toc.ogChangeRate" value="0.800"/>
            <param key="device.toc.mrmDecel" value="3.000"/>
            <param key="device.toc.useColorScheme" value="true"/>
            <param key="device.toc.dynamicToCThreshold" value="9.867"/>
            <param key="has.ssm.device" value="true"/>
            <param key="device.ssm.measures" value="TTC DRAC PET"/>
            <param key="device.ssm.thresholds" value="0.75 5.0 2.0"/>
            <param key="device.ssm.range" value="50.000"/>
            <param key="device.ssm.extratime" value="5.000"/>
            <param key="device.ssm.file" value="Output-Files\SSM-L4-CV.xml"/>
            <param key="device.ssm.trajectories" value="false"/>
            <param key="device.ssm.geo" value="true"/>
        </vType>
        <vType id="L4-CV-17" carFollowModel="CACC" color="yellow" vClass="custom1" tau="0.600" decel="3.760" accel="1.441" emergencyDecel="9.000" actionStepLength="0.100" lcAssertive="0.826">
            <param key="has.toc.device" value="true"/>
            <param key="device.toc.automatedType" value="L4-CV-"/>
            <param key="device.toc.manualType" value="L0-HDV-"/>
            <param key="device.toc.responseTime" value="8.905"/>
            <param key="device.toc.initialAwareness" value="0.660"/>
            <param key="device.toc.recoveryRate" value="0.199"/>
            <param key="device.toc.tauCACCtoACC" value="1.385"/>
            <param key="device.toc.ogNewTimeHeadway" value="1.600"/>
            <param key="device.toc.ogChangeRate" value="0.800"/>
            <param key="device.toc.mrmDecel" value="3.000"/>
            <param key="device.toc.useColorScheme" value="true"/>
            <param key="device.toc.dynamicToCThreshold" value="9.040"/>
            <param key="has.ssm.device" value="true"/>
            <param key="device.ssm.measures" value="TTC DRAC PET"/>
            <param key="device.ssm.thresholds" value="0.75 5.0 2.0"/>
            <param key="device.ssm.range" value="50.000"/>
            <param key="device.ssm.extratime" value="5.000"/>
            <param key="device.ssm.file" value="Output-Files\SSM-L4-CV.xml"/>
            <param key="device.ssm.trajectories" value="false"/>
            <param key="device.ssm.geo" value="true"/>
        </vType>
        <vType id="L4-CV-18" carFollowModel="CACC" color="yellow" vClass="custom1" tau="0.600" decel="3.378" accel="1.153" emergencyDecel="9.000" actionStepLength="0.100" lcAssertive="0.846">
            <param key="has.toc.device" value="true"/>
            <param key="device.toc.automatedType" value="L4-CV-"/>
            <param key="device.toc.manualType" value="L0-HDV-"/>
            <param key="device.toc.responseTime" value="4.121"/>
            <param key="device.toc.initialAwareness" value="0.695"/>
            <param key="device.toc.recoveryRate" value="0.197"/>
            <param key="device.toc.tauCACCtoACC" value="1.390"/>
            <param key="device.toc.ogNewTimeHeadway" value="1.600"/>
            <param key="device.toc.ogChangeRate" value="0.800"/>
            <param key="device.toc.mrmDecel" value="3.000"/>
            <param key="device.toc.useColorScheme" value="true"/>
            <param key="device.toc.dynamicToCThreshold" value="9.100"/>
            <param key="has.ssm.device" value="true"/>
            <param key="device.ssm.measures" value="TTC DRAC PET"/>
            <param key="device.ssm.thresholds" value="0.75 5.0 2.0"/>
            <param key="device.ssm.range" value="50.000"/>
            <param key="device.ssm.extratime" value="5.000"/>
            <param key="device.ssm.file" value="Output-Files\SSM-L4-CV.xml"/>
            <param key="device.ssm.trajectories" value="false"/>
            <param key="device.ssm.geo" value="true"/>
        </vType>
        <vType id="L4-CV-19" carFollowModel="CACC" color="yellow" vClass="custom1" tau="0.600" decel="2.386" accel="1.387" emergencyDecel="9.000" actionStepLength="0.100" lcAssertive="0.832">
            <param key="has.toc.device" value="true"/>
            <param key="device.toc.automatedType" value="L4-CV-"/>
            <param key="device.toc.manualType" value="L0-HDV-"/>
            <param key="device.toc.responseTime" value="6.607"/>
            <param key="device.toc.initialAwareness" value="0.587"/>
            <param key="device.toc.recoveryRate" value="0.322"/>
            <param key="device.toc.tauCACCtoACC" value="1.417"/>
            <param key="device.toc.ogNewTimeHeadway" value="1.600"/>
            <param key="device.toc.ogChangeRate" value="0.800"/>
            <param key="device.toc.mrmDecel" value="3.000"/>
            <param key="device.toc.useColorScheme" value="true"/>
            <param key="device.toc.dynamicToCThreshold" value="8.420"/>
            <param key="has.ssm.device" value="true"/>