<additional xmlns:xsi="http://www.w3.org/2001/XMLSchema-instance" xsi:noNamespaceSchemaLocation="http://sumo.dlr.de/xsd/additional_file.xsd">
    
    
    
    
    
    
    
    
    
    
    
    
    
    
    
    
    
    
    
    
    
    
    
    
    
    
    
    
    
    
    
    
    
    
    
    
    
    
    
    
    
    
    
    
    
    
    
    
    
    
    
    
    
    
    
    
    
    
    
    
    
    
    
    
    
    
    
    
    
    
    
    
    
    
    
    
    
    
    
    
    
    
    
    
    
    
    
    
    
    
    
    
    
    
    
    
    
    
    
    
    
    
    
    
    
    
    
    
    
    
    
    
    
    
    
    
    
    
    
    
    
    
    
    
    
    
    
    
    
    
    
    
    
    
    <vTypeDistribution id="L4-CV">
        <vType id="L4-CV0" carFollowModel="CACC" color="blue" vClass="custom1" tau="0.600" decel="3.245" accel="1.003" emergencyDecel="9.000" actionStepLength="0.100" lcAssertive="0.875">
            <param key="has.toc.device" value="true"/>
            <param key="device.toc.manualType" value="L0-HDV"/>
            <param key="device.toc.automatedType" value="L4-CV"/>
            <param key="device.toc.reponseTime" value="5.217"/>
            <param key="device.toc.initialAwareness" value="0.206"/>
            <param key="device.toc.recoveryRate" value="0.307"/>
            <param key="device.toc.tauCACCtoACC" value="1.266"/>
            <param key="device.toc.ogNewTimeHeadway" value="1.600"/>
            <param key="device.toc.ogChangeRate" value="0.800"/>
            <param key="device.toc.mrmDecel" value="3.000"/>
            <param key="device.toc.useColorScheme" value="true"/>
            <param key="device.toc.dynamicMRMProbability" value="0.500"/>
            <param key="has.ssm.device" value="true"/>
            <param key="device.ssm.measures" value="TTC DRAC PET"/>
            <param key="device.ssm.thresholds" value="3.0 3.0 2.0"/>
            <param key="device.ssm.range" value="50.000"/>
            <param key="device.ssm.extratime" value="5.000"/>
            <param key="device.ssm.file" value="Output-Files\L4-CV.xml"/>
            <param key="device.ssm.trajectories" value="false"/>
            <param key="device.ssm.geo" value="false"/>
        </vType>
        <vType id="L4-CV1" carFollowModel="CACC" color="blue" vClass="custom1" tau="0.600" decel="2.675" accel="1.035" emergencyDecel="9.000" actionStepLength="0.100" lcAssertive="0.880">
            <param key="has.toc.device" value="true"/>
            <param key="device.toc.manualType" value="L0-HDV"/>
            <param key="device.toc.automatedType" value="L4-CV"/>
            <param key="device.toc.reponseTime" value="8.510"/>
            <param key="device.toc.initialAwareness" value="0.542"/>
            <param key="device.toc.recoveryRate" value="0.184"/>
            <param key="device.toc.tauCACCtoACC" value="1.312"/>
            <param key="device.toc.ogNewTimeHeadway" value="1.600"/>
            <param key="device.toc.ogChangeRate" value="0.800"/>
            <param key="device.toc.mrmDecel" value="3.000"/>
            <param key="device.toc.useColorScheme" value="true"/>
            <param key="device.toc.dynamicMRMProbability" value="0.500"/>
            <param key="has.ssm.device" value="true"/>
            <param key="device.ssm.measures" value="TTC DRAC PET"/>
            <param key="device.ssm.thresholds" value="3.0 3.0 2.0"/>
            <param key="device.ssm.range" value="50.000"/>
            <param key="device.ssm.extratime" value="5.000"/>
            <param key="device.ssm.file" value="Output-Files\L4-CV.xml"/>
            <param key="device.ssm.trajectories" value="false"/>
            <param key="device.ssm.geo" value="false"/>
        </vType>
        <vType id="L4-CV2" carFollowModel="CACC" color="blue" vClass="custom1" tau="0.600" decel="2.052" accel="1.866" emergencyDecel="9.000" actionStepLength="0.100" lcAssertive="0.844">
            <param key="has.toc.device" value="true"/>
            <param key="device.toc.manualType" value="L0-HDV"/>
            <param key="device.toc.automatedType" value="L4-CV"/>
            <param key="device.toc.reponseTime" value="6.832"/>
            <param key="device.toc.initialAwareness" value="0.217"/>
            <param key="device.toc.recoveryRate" value="0.281"/>
            <param key="device.toc.tauCACCtoACC" value="1.414"/>
            <param key="device.toc.ogNewTimeHeadway" value="1.600"/>
            <param key="device.toc.ogChangeRate" value="0.800"/>
            <param key="device.toc.mrmDecel" value="3.000"/>
            <param key="device.toc.useColorScheme" value="true"/>
            <param key="device.toc.dynamicMRMProbability" value="0.500"/>
            <param key="has.ssm.device" value="true"/>
            <param key="device.ssm.measures" value="TTC DRAC PET"/>
            <param key="device.ssm.thresholds" value="3.0 3.0 2.0"/>
            <param key="device.ssm.range" value="50.000"/>
            <param key="device.ssm.extratime" value="5.000"/>
            <param key="device.ssm.file" value="Output-Files\L4-CV.xml"/>
            <param key="device.ssm.trajectories" value="false"/>
            <param key="device.ssm.geo" value="false"/>
        </vType>
        <vType id="L4-CV3" carFollowModel="CACC" color="blue" vClass="custom1" tau="0.600" decel="3.942" accel="1.941" emergencyDecel="9.000" actionStepLength="0.100" lcAssertive="0.876">
            <param key="has.toc.device" value="true"/>
            <param key="device.toc.manualType" value="L0-HDV"/>
            <param key="device.toc.automatedType" value="L4-CV"/>
            <param key="device.toc.reponseTime" value="4.402"/>
            <param key="device.toc.initialAwareness" value="0.486"/>
            <param key="device.toc.recoveryRate" value="0.392"/>
            <param key="device.toc.tauCACCtoACC" value="1.456"/>
            <param key="device.toc.ogNewTimeHeadway" value="1.600"/>
            <param key="device.toc.ogChangeRate" value="0.800"/>
            <param key="device.toc.mrmDecel" value="3.000"/>
            <param key="device.toc.useColorScheme" value="true"/>
            <param key="device.toc.dynamicMRMProbability" value="0.500"/>
            <param key="has.ssm.device" value="true"/>
            <param key="device.ssm.measures" value="TTC DRAC PET"/>
            <param key="device.ssm.thresholds" value="3.0 3.0 2.0"/>
            <param key="device.ssm.range" value="50.000"/>
            <param key="device.ssm.extratime" value="5.000"/>
            <param key="device.ssm.file" value="Output-Files\L4-CV.xml"/>
            <param key="device.ssm.trajectories" value="false"/>
            <param key="device.ssm.geo" value="false"/>
        </vType>
        <vType id="L4-CV4" carFollowModel="CACC" color="blue" vClass="custom1" tau="0.600" decel="3.867" accel="1.501" emergencyDecel="9.000" actionStepLength="0.100" lcAssertive="0.831">
            <param key="has.toc.device" value="true"/>
            <param key="device.toc.manualType" value="L0-HDV"/>
            <param key="device.toc.automatedType" value="L4-CV"/>
            <param key="device.toc.reponseTime" value="5.952"/>
            <param key="device.toc.initialAwareness" value="0.694"/>
            <param key="device.toc.recoveryRate" value="0.352"/>
            <param key="device.toc.tauCACCtoACC" value="1.430"/>
            <param key="device.toc.ogNewTimeHeadway" value="1.600"/>
            <param key="device.toc.ogChangeRate" value="0.800"/>
            <param key="device.toc.mrmDecel" value="3.000"/>
            <param key="device.toc.useColorScheme" value="true"/>
            <param key="device.toc.dynamicMRMProbability" value="0.500"/>
            <param key="has.ssm.device" value="true"/>
            <param key="device.ssm.measures" value="TTC DRAC PET"/>
            <param key="device.ssm.thresholds" value="3.0 3.0 2.0"/>
            <param key="device.ssm.range" value="50.000"/>
            <param key="device.ssm.extratime" value="5.000"/>
            <param key="device.ssm.file" value="Output-Files\L4-CV.xml"/>
            <param key="device.ssm.trajectories" value="false"/>
            <param key="device.ssm.geo" value="false"/>
        </vType>
        <vType id="L4-CV5" carFollowModel="CACC" color="blue" vClass="custom1" tau="0.600" decel="3.523" accel="1.406" emergencyDecel="9.000" actionStepLength="0.100" lcAssertive="0.847">
            <param key="has.toc.device" value="true"/>
            <param key="device.toc.manualType" value="L0-HDV"/>
            <param key="device.toc.automatedType" value="L4-CV"/>
            <param key="device.toc.reponseTime" value="6.012"/>
            <param key="device.toc.initialAwareness" value="0.264"/>
            <param key="device.toc.recoveryRate" value="0.228"/>
            <param key="device.toc.tauCACCtoACC" value="1.332"/>
            <param key="device.toc.ogNewTimeHeadway" value="1.600"/>
            <param key="device.toc.ogChangeRate" value="0.800"/>
            <param key="device.toc.mrmDecel" value="3.000"/>
            <param key="device.toc.useColorScheme" value="true"/>
            <param key="device.toc.dynamicMRMProbability" value="0.500"/>
            <param key="has.ssm.device" value="true"/>
            <param key="device.ssm.measures" value="TTC DRAC PET"/>
            <param key="device.ssm.thresholds" value="3.0 3.0 2.0"/>
            <param key="device.ssm.range" value="50.000"/>
            <param key="device.ssm.extratime" value="5.000"/>
            <param key="device.ssm.file" value="Output-Files\L4-CV.xml"/>
            <param key="device.ssm.trajectories" value="false"/>
            <param key="device.ssm.geo" value="false"/>
        </vType>
        <vType id="L4-CV6" carFollowModel="CACC" color="blue" vClass="custom1" tau="0.600" decel="2.325" accel="0.906" emergencyDecel="9.000" actionStepLength="0.100" lcAssertive="0.810">
            <param key="has.toc.device" value="true"/>
            <param key="device.toc.manualType" value="L0-HDV"/>
            <param key="device.toc.automatedType" value="L4-CV"/>
            <param key="device.toc.reponseTime" value="2.717"/>
            <param key="device.toc.initialAwareness" value="0.309"/>
            <param key="device.toc.recoveryRate" value="0.424"/>
            <param key="device.toc.tauCACCtoACC" value="1.456"/>
            <param key="device.toc.ogNewTimeHeadway" value="1.600"/>
            <param key="device.toc.ogChangeRate" value="0.800"/>
            <param key="device.toc.mrmDecel" value="3.000"/>
            <param key="device.toc.useColorScheme" value="true"/>
            <param key="device.toc.dynamicMRMProbability" value="0.500"/>
            <param key="has.ssm.device" value="true"/>
            <param key="device.ssm.measures" value="TTC DRAC PET"/>
            <param key="device.ssm.thresholds" value="3.0 3.0 2.0"/>
            <param key="device.ssm.range" value="50.000"/>
            <param key="device.ssm.extratime" value="5.000"/>
            <param key="device.ssm.file" value="Output-Files\L4-CV.xml"/>
            <param key="device.ssm.trajectories" value="false"/>
            <param key="device.ssm.geo" value="false"/>
        </vType>
        <vType id="L4-CV7" carFollowModel="CACC" color="blue" vClass="custom1" tau="0.600" decel="3.652" accel="1.254" emergencyDecel="9.000" actionStepLength="0.100" lcAssertive="0.874">
            <param key="has.toc.device" value="true"/>
            <param key="device.toc.manualType" value="L0-HDV"/>
            <param key="device.toc.automatedType" value="L4-CV"/>
            <param key="device.toc.reponseTime" value="4.982"/>
            <param key="device.toc.initialAwareness" value="0.656"/>
            <param key="device.toc.recoveryRate" value="0.154"/>
            <param key="device.toc.tauCACCtoACC" value="1.463"/>
            <param key="device.toc.ogNewTimeHeadway" value="1.600"/>
            <param key="device.toc.ogChangeRate" value="0.800"/>
            <param key="device.toc.mrmDecel" value="3.000"/>
            <param key="device.toc.useColorScheme" value="true"/>
            <param key="device.toc.dynamicMRMProbability" value="0.500"/>
            <param key="has.ssm.device" value="true"/>
            <param key="device.ssm.measures" value="TTC DRAC PET"/>
            <param key="device.ssm.thresholds" value="3.0 3.0 2.0"/>
            <param key="device.ssm.range" value="50.000"/>
            <param key="device.ssm.extratime" value="5.000"/>
            <param key="device.ssm.file" value="Output-Files\L4-CV.xml"/>
            <param key="device.ssm.trajectories" value="false"/>
            <param key="device.ssm.geo" value="false"/>
        </vType>
        <vType id="L4-CV8" carFollowModel="CACC" color="blue" vClass="custom1" tau="0.600" decel="2.296" accel="1.591" emergencyDecel="9.000" actionStepLength="0.100" lcAssertive="0.864">
            <param key="has.toc.device" value="true"/>
            <param key="device.toc.manualType" value="L0-HDV"/>
            <param key="device.toc.automatedType" value="L4-CV"/>
            <param key="device.toc.reponseTime" value="5.436"/>
            <param key="device.toc.initialAwareness" value="0.405"/>
            <param key="device.toc.recoveryRate" value="0.063"/>
            <param key="device.toc.tauCACCtoACC" value="1.473"/>
            <param key="device.toc.ogNewTimeHeadway" value="1.600"/>
            <param key="device.toc.ogChangeRate" value="0.800"/>
            <param key="device.toc.mrmDecel" value="3.000"/>
            <param key="device.toc.useColorScheme" value="true"/>
            <param key="device.toc.dynamicMRMProbability" value="0.500"/>
            <param key="has.ssm.device" value="true"/>
            <param key="device.ssm.measures" value="TTC DRAC PET"/>
            <param key="device.ssm.thresholds" value="3.0 3.0 2.0"/>
            <param key="device.ssm.range" value="50.000"/>
            <param key="device.ssm.extratime" value="5.000"/>
            <param key="device.ssm.file" value="Output-Files\L4-CV.xml"/>
            <param key="device.ssm.trajectories" value="false"/>
            <param key="device.ssm.geo" value="false"/>
        </vType>
        <vType id="L4-CV9" carFollowModel="CACC" color="blue" vClass="custom1" tau="0.600" decel="3.340" accel="1.787" emergencyDecel="9.000" actionStepLength="0.100" lcAssertive="0.813">
            <param key="has.toc.device" value="true"/>
            <param key="device.toc.manualType" value="L0-HDV"/>
            <param key="device.toc.automatedType" value="L4-CV"/>
            <param key="device.toc.reponseTime" value="5.568"/>
            <param key="device.toc.initialAwareness" value="0.229"/>
            <param key="device.toc.recoveryRate" value="0.300"/>
            <param key="device.toc.tauCACCtoACC" value="1.397"/>
            <param key="device.toc.ogNewTimeHeadway" value="1.600"/>
            <param key="device.toc.ogChangeRate" value="0.800"/>
            <param key="device.toc.mrmDecel" value="3.000"/>
            <param key="device.toc.useColorScheme" value="true"/>
            <param key="device.toc.dynamicMRMProbability" value="0.500"/>
            <param key="has.ssm.device" value="true"/>
            <param key="device.ssm.measures" value="TTC DRAC PET"/>
            <param key="device.ssm.thresholds" value="3.0 3.0 2.0"/>
            <param key="device.ssm.range" value="50.000"/>
            <param key="device.ssm.extratime" value="5.000"/>
            <param key="device.ssm.file" value="Output-Files\L4-CV.xml"/>
            <param key="device.ssm.trajectories" value="false"/>
            <param key="device.ssm.geo" value="false"/>
        </vType>
        <vType id="L4-CV10" carFollowModel="CACC" color="blue" vClass="custom1" tau="0.600" decel="3.888" accel="1.926" emergencyDecel="9.000" actionStepLength="0.100" lcAssertive="0.843">
            <param key="has.toc.device" value="true"/>
            <param key="device.toc.manualType" value="L0-HDV"/>
            <param key="device.toc.automatedType" value="L4-CV"/>
            <param key="device.toc.reponseTime" value="6.727"/>
            <param key="device.toc.initialAwareness" value="0.003"/>
            <param key="device.toc.recoveryRate" value="0.176"/>
            <param key="device.toc.tauCACCtoACC" value="1.584"/>
            <param key="device.toc.ogNewTimeHeadway" value="1.600"/>
            <param key="device.toc.ogChangeRate" value="0.800"/>
            <param key="device.toc.mrmDecel" value="3.000"/>
            <param key="device.toc.useColorScheme" value="true"/>
            <param key="device.toc.dynamicMRMProbability" value="0.500"/>
            <param key="has.ssm.device" value="true"/>
            <param key="device.ssm.measures" value="TTC DRAC PET"/>
            <param key="device.ssm.thresholds" value="3.0 3.0 2.0"/>
            <param key="device.ssm.range" value="50.000"/>
            <param key="device.ssm.extratime" value="5.000"/>
            <param key="device.ssm.file" value="Output-Files\L4-CV.xml"/>
            <param key="device.ssm.trajectories" value="false"/>
            <param key="device.ssm.geo" value="false"/>
        </vType>
        <vType id="L4-CV11" carFollowModel="CACC" color="blue" vClass="custom1" tau="0.600" decel="2.070" accel="1.234" emergencyDecel="9.000" actionStepLength="0.100" lcAssertive="0.889">
            <param key="has.toc.device" value="true"/>
            <param key="device.toc.manualType" value="L0-HDV"/>
            <param key="device.toc.automatedType" value="L4-CV"/>
            <param key="device.toc.reponseTime" value="7.092"/>
            <param key="device.toc.initialAwareness" value="0.073"/>
            <param key="device.toc.recoveryRate" value="0.151"/>
            <param key="device.toc.tauCACCtoACC" value="1.594"/>
            <param key="device.toc.ogNewTimeHeadway" value="1.600"/>
            <param key="device.toc.ogChangeRate" value="0.800"/>
            <param key="device.toc.mrmDecel" value="3.000"/>
            <param key="device.toc.useColorScheme" value="true"/>
            <param key="device.toc.dynamicMRMProbability" value="0.500"/>
            <param key="has.ssm.device" value="true"/>
            <param key="device.ssm.measures" value="TTC DRAC PET"/>
            <param key="device.ssm.thresholds" value="3.0 3.0 2.0"/>
            <param key="device.ssm.range" value="50.000"/>
            <param key="device.ssm.extratime" value="5.000"/>
            <param key="device.ssm.file" value="Output-Files\L4-CV.xml"/>
            <param key="device.ssm.trajectories" value="false"/>
            <param key="device.ssm.geo" value="false"/>
        </vType>
        <vType id="L4-CV12" carFollowModel="CACC" color="blue" vClass="custom1" tau="0.600" decel="3.313" accel="1.292" emergencyDecel="9.000" actionStepLength="0.100" lcAssertive="0.846">
            <param key="has.toc.device" value="true"/>
            <param key="device.toc.manualType" value="L0-HDV"/>
            <param key="device.toc.automatedType" value="L4-CV"/>
            <param key="device.toc.reponseTime" value="6.153"/>
            <param key="device.toc.initialAwareness" value="0.681"/>
            <param key="device.toc.recoveryRate" value="0.237"/>
            <param key="device.toc.tauCACCtoACC" value="1.805"/>
            <param key="device.toc.ogNewTimeHeadway" value="1.600"/>
            <param key="device.toc.ogChangeRate" value="0.800"/>
            <param key="device.toc.mrmDecel" value="3.000"/>
            <param key="device.toc.useColorScheme" value="true"/>
            <param key="device.toc.dynamicMRMProbability" value="0.500"/>
            <param key="has.ssm.device" value="true"/>
            <param key="device.ssm.measures" value="TTC DRAC PET"/>
            <param key="device.ssm.thresholds" value="3.0 3.0 2.0"/>
            <param key="device.ssm.range" value="50.000"/>
            <param key="device.ssm.extratime" value="5.000"/>
            <param key="device.ssm.file" value="Output-Files\L4-CV.xml"/>
            <param key="device.ssm.trajectories" value="false"/>
            <param key="device.ssm.geo" value="false"/>
        </vType>
        <vType id="L4-CV13" carFollowModel="CACC" color="blue" vClass="custom1" tau="0.600" decel="2.308" accel="1.021" emergencyDecel="9.000" actionStepLength="0.100" lcAssertive="0.842">
            <param key="has.toc.device" value="true"/>
            <param key="device.toc.manualType" value="L0-HDV"/>
            <param key="device.toc.automatedType" value="L4-CV"/>
            <param key="device.toc.reponseTime" value="6.991"/>
            <param key="device.toc.initialAwareness" value="0.588"/>
            <param key="device.toc.recoveryRate" value="0.240"/>
            <param key="device.toc.tauCACCtoACC" value="1.631"/>
            <param key="device.toc.ogNewTimeHeadway" value="1.600"/>
            <param key="device.toc.ogChangeRate" value="0.800"/>
            <param key="device.toc.mrmDecel" value="3.000"/>
            <param key="device.toc.useColorScheme" value="true"/>
            <param key="device.toc.dynamicMRMProbability" value="0.500"/>
            <param key="has.ssm.device" value="true"/>
            <param key="device.ssm.measures" value="TTC DRAC PET"/>
            <param key="device.ssm.thresholds" value="3.0 3.0 2.0"/>
            <param key="device.ssm.range" value="50.000"/>
            <param key="device.ssm.extratime" value="5.000"/>
            <param key="device.ssm.file" value="Output-Files\L4-CV.xml"/>
            <param key="device.ssm.trajectories" value="false"/>
            <param key="device.ssm.geo" value="false"/>
        </vType>
        <vType id="L4-CV14" carFollowModel="CACC" color="blue" vClass="custom1" tau="0.600" decel="3.404" accel="1.873" emergencyDecel="9.000" actionStepLength="0.100" lcAssertive="0.841">
            <param key="has.toc.device" value="true"/>
            <param key="device.toc.manualType" value="L0-HDV"/>
            <param key="device.toc.automatedType" value="L4-CV"/>
            <param key="device.toc.reponseTime" value="2.538"/>
            <param key="device.toc.initialAwareness" value="0.509"/>
            <param key="device.toc.recoveryRate" value="0.376"/>
            <param key="device.toc.tauCACCtoACC" value="1.450"/>
            <param key="device.toc.ogNewTimeHeadway" value="1.600"/>
            <param key="device.toc.ogChangeRate" value="0.800"/>
            <param key="device.toc.mrmDecel" value="3.000"/>
            <param key="device.toc.useColorScheme" value="true"/>
            <param key="device.toc.dynamicMRMProbability" value="0.500"/>
            <param key="has.ssm.device" value="true"/>
            <param key="device.ssm.measures" value="TTC DRAC PET"/>
            <param key="device.ssm.thresholds" value="3.0 3.0 2.0"/>
            <param key="device.ssm.range" value="50.000"/>
            <param key="device.ssm.extratime" value="5.000"/>
            <param key="device.ssm.file" value="Output-Files\L4-CV.xml"/>
            <param key="device.ssm.trajectories" value="false"/>
            <param key="device.ssm.geo" value="false"/>
        </vType>
        <vType id="L4-CV15" carFollowModel="CACC" color="blue" vClass="custom1" tau="0.600" decel="3.421" accel="0.947" emergencyDecel="9.000" actionStepLength="0.100" lcAssertive="0.845">
            <param key="has.toc.device" value="true"/>
            <param key="device.toc.manualType" value="L0-HDV"/>
            <param key="device.toc.automatedType" value="L4-CV"/>
            <param key="device.toc.reponseTime" value="3.238"/>
            <param key="device.toc.initialAwareness" value="0.899"/>
            <param key="device.toc.recoveryRate" value="0.174"/>
            <param key="device.toc.tauCACCtoACC" value="1.443"/>
            <param key="device.toc.ogNewTimeHeadway" value="1.600"/>
            <param key="device.toc.ogChangeRate" value="0.800"/>
            <param key="device.toc.mrmDecel" value="3.000"/>
            <param key="device.toc.useColorScheme" value="true"/>
            <param key="device.toc.dynamicMRMProbability" value="0.500"/>
            <param key="has.ssm.device" value="true"/>
            <param key="device.ssm.measures" value="TTC DRAC PET"/>
            <param key="device.ssm.thresholds" value="3.0 3.0 2.0"/>
            <param key="device.ssm.range" value="50.000"/>
            <param key="device.ssm.extratime" value="5.000"/>
            <param key="device.ssm.file" value="Output-Files\L4-CV.xml"/>
            <param key="device.ssm.trajectories" value="false"/>
            <param key="device.ssm.geo" value="false"/>
        </vType>
        <vType id="L4-CV16" carFollowModel="CACC" color="blue" vClass="custom1" tau="0.600" decel="3.496" accel="1.374" emergencyDecel="9.000" actionStepLength="0.100" lcAssertive="0.841">
            <param key="has.toc.device" value="true"/>
            <param key="device.toc.manualType" value="L0-HDV"/>
            <param key="device.toc.automatedType" value="L4-CV"/>
            <param key="device.toc.reponseTime" value="6.754"/>
            <param key="device.toc.initialAwareness" value="0.082"/>
            <param key="device.toc.recoveryRate" value="0.284"/>
            <param key="device.toc.tauCACCtoACC" value="1.939"/>
            <param key="device.toc.ogNewTimeHeadway" value="1.600"/>
            <param key="device.toc.ogChangeRate" value="0.800"/>
            <param key="device.toc.mrmDecel" value="3.000"/>
            <param key="device.toc.useColorScheme" value="true"/>
            <param key="device.toc.dynamicMRMProbability" value="0.500"/>
            <param key="has.ssm.device" value="true"/>
            <param key="device.ssm.measures" value="TTC DRAC PET"/>
            <param key="device.ssm.thresholds" value="3.0 3.0 2.0"/>
            <param key="device.ssm.range" value="50.000"/>
            <param key="device.ssm.extratime" value="5.000"/>
            <param key="device.ssm.file" value="Output-Files\L4-CV.xml"/>
            <param key="device.ssm.trajectories" value="false"/>
            <param key="device.ssm.geo" value="false"/>
        </vType>
        <vType id="L4-CV17" carFollowModel="CACC" color="blue" vClass="custom1" tau="0.600" decel="3.382" accel="1.104" emergencyDecel="9.000" actionStepLength="0.100" lcAssertive="0.815">
            <param key="has.toc.device" value="true"/>
            <param key="device.toc.manualType" value="L0-HDV"/>
            <param key="device.toc.automatedType" value="L4-CV"/>
            <param key="device.toc.reponseTime" value="5.474"/>
            <param key="device.toc.initialAwareness" value="0.918"/>
            <param key="device.toc.recoveryRate" value="0.133"/>
            <param key="device.toc.tauCACCtoACC" value="1.506"/>
            <param key="device.toc.ogNewTimeHeadway" value="1.600"/>
            <param key="device.toc.ogChangeRate" value="0.800"/>
            <param key="device.toc.mrmDecel" value="3.000"/>
            <param key="device.toc.useColorScheme" value="true"/>
            <param key="device.toc.dynamicMRMProbability" value="0.500"/>
            <param key="has.ssm.device" value="true"/>
            <param key="device.ssm.measures" value="TTC DRAC PET"/>
            <param key="device.ssm.thresholds" value="3.0 3.0 2.0"/>
            <param key="device.ssm.range" value="50.000"/>
            <param key="device.ssm.extratime" value="5.000"/>
            <param key="device.ssm.file" value="Output-Files\L4-CV.xml"/>
            <param key="device.ssm.trajectories" value="false"/>
            <param key="device.ssm.geo" value="false"/>
        </vType>
        <vType id="L4-CV18" carFollowModel="CACC" color="blue" vClass="custom1" tau="0.600" decel="2.624" accel="1.441" emergencyDecel="9.000" actionStepLength="0.100" lcAssertive="0.826">
            <param key="has.toc.device" value="true"/>
            <param key="device.toc.manualType" value="L0-HDV"/>
            <param key="device.toc.automatedType" value="L4-CV"/>
            <param key="device.toc.reponseTime" value="7.453"/>
            <param key="device.toc.initialAwareness" value="0.525"/>
            <param key="device.toc.recoveryRate" value="0.149"/>
            <param key="device.toc.tauCACCtoACC" value="1.385"/>
            <param key="device.toc.ogNewTimeHeadway" value="1.600"/>
            <param key="device.toc.ogChangeRate" value="0.800"/>
            <param key="device.toc.mrmDecel" value="3.000"/>
            <param key="device.toc.useColorScheme" value="true"/>
            <param key="device.toc.dynamicMRMProbability" value="0.500"/>
            <param key="has.ssm.device" value="true"/>
            <param key="device.ssm.measures" value="TTC DRAC PET"/>
            <param key="device.ssm.thresholds" value="3.0 3.0 2.0"/>
            <param key="device.ssm.range" value="50.000"/>
            <param key="device.ssm.extratime" value="5.000"/>
            <param key="device.ssm.file" value="Output-Files\L4-CV.xml"/>
            <param key="device.ssm.trajectories" value="false"/>
            <param key="device.ssm.geo" value="false"/>
        </vType>
        <vType id="L4-CV19" carFollowModel="CACC" color="blue" vClass="custom1" tau="0.600" decel="3.080" accel="1.878" emergencyDecel="9.000" actionStepLength="0.100" lcAssertive="0.843">
            <param key="has.toc.device" value="true"/>
            <param key="device.toc.manualType" value="L0-HDV"/>
            <param key="device.toc.automatedType" value="L4-CV"/>
            <param key="device.toc.reponseTime" value="5.127"/>
            <param key="device.toc.initialAwareness" value="0.090"/>
            <param key="device.toc.recoveryRate" value="0.297"/>
            <param key="device.toc.tauCACCtoACC" value="1.294"/>
            <param key="device.toc.ogNewTimeHeadway" value="1.600"/>